
*** ChampSim Multicore Out-of-Order Simulator ***

Warmup Instructions: 10000000
Simulation Instructions: 100000000
Number of CPUs: 1
Off-chip DRAM Size: 4 GiB Channels: 1 Width: 64-bit Data Rate: 3200 MT/s

VirtualMemory physical capacity: 8588881920 num_ppages: 2096895
VirtualMemory page size: 4096 log2_page_size: 12

CPU 0 runs /datasets/cs240c-wi22-a00-public/data/Assignment2/calculix_3812B.trace.xz
CPU 0 Bimodal branch predictor
Basic BTB sets: 1024 ways: 8 indirect buffer size: 4096 RAS size: 64
Initialize Hawkeye state
Initialize SRRIP state
Heartbeat CPU 0 instructions: 10000000 cycles: 2819851 heartbeat IPC: 3.54629 cumulative IPC: 3.54629 (Simulation time: 0 hr 0 min 31 sec) 

Warmup complete CPU 0 instructions: 10000004 cycles: 2819852 (Simulation time: 0 hr 0 min 31 sec) 

Heartbeat CPU 0 instructions: 20000004 cycles: 6555666 heartbeat IPC: 2.67679 cumulative IPC: 2.67679 (Simulation time: 0 hr 1 min 0 sec) 
Heartbeat CPU 0 instructions: 30000001 cycles: 10359766 heartbeat IPC: 2.62874 cumulative IPC: 2.65255 (Simulation time: 0 hr 1 min 28 sec) 
Heartbeat CPU 0 instructions: 40000000 cycles: 14170540 heartbeat IPC: 2.62414 cumulative IPC: 2.64301 (Simulation time: 0 hr 2 min 16 sec) 
Heartbeat CPU 0 instructions: 50000001 cycles: 18399473 heartbeat IPC: 2.36466 cumulative IPC: 2.56746 (Simulation time: 0 hr 2 min 56 sec) 
Heartbeat CPU 0 instructions: 60000000 cycles: 22269841 heartbeat IPC: 2.58373 cumulative IPC: 2.5707 (Simulation time: 0 hr 3 min 26 sec) 
Heartbeat CPU 0 instructions: 70000000 cycles: 26067372 heartbeat IPC: 2.63329 cumulative IPC: 2.58092 (Simulation time: 0 hr 3 min 54 sec) 
Heartbeat CPU 0 instructions: 80000001 cycles: 29814041 heartbeat IPC: 2.66904 cumulative IPC: 2.59315 (Simulation time: 0 hr 4 min 33 sec) 
Heartbeat CPU 0 instructions: 90000004 cycles: 33607051 heartbeat IPC: 2.63643 cumulative IPC: 2.59848 (Simulation time: 0 hr 5 min 10 sec) 
Heartbeat CPU 0 instructions: 100000001 cycles: 37295929 heartbeat IPC: 2.71085 cumulative IPC: 2.61051 (Simulation time: 0 hr 5 min 40 sec) 
Heartbeat CPU 0 instructions: 110000002 cycles: 40984576 heartbeat IPC: 2.71102 cumulative IPC: 2.62022 (Simulation time: 0 hr 6 min 8 sec) 
Finished CPU 0 instructions: 100000003 cycles: 38164725 cumulative IPC: 2.62022 (Simulation time: 0 hr 6 min 8 sec) 

ChampSim completed all CPUs

Region of Interest Statistics

CPU 0 cumulative IPC: 2.62022 instructions: 100000003 cycles: 38164725
cpu0_DTLB TOTAL     ACCESS:   14465317  HIT:   14438047  MISS:      27270
cpu0_DTLB LOAD      ACCESS:   12807708  HIT:   12781537  MISS:      26171
cpu0_DTLB RFO       ACCESS:    1657609  HIT:    1656510  MISS:       1099
cpu0_DTLB PREFETCH  ACCESS:          0  HIT:          0  MISS:          0
cpu0_DTLB WRITEBACK ACCESS:          0  HIT:          0  MISS:          0
cpu0_DTLB TRANSLATION ACCESS:          0  HIT:          0  MISS:          0
cpu0_DTLB PREFETCH  REQUESTED:          0  ISSUED:          0  USEFUL:          0  USELESS:          0
cpu0_DTLB AVERAGE MISS LATENCY: 14.9769 cycles
cpu0_ITLB TOTAL     ACCESS:    5743189  HIT:    5743161  MISS:         28
cpu0_ITLB LOAD      ACCESS:    5743189  HIT:    5743161  MISS:         28
cpu0_ITLB RFO       ACCESS:          0  HIT:          0  MISS:          0
cpu0_ITLB PREFETCH  ACCESS:          0  HIT:          0  MISS:          0
cpu0_ITLB WRITEBACK ACCESS:          0  HIT:          0  MISS:          0
cpu0_ITLB TRANSLATION ACCESS:          0  HIT:          0  MISS:          0
cpu0_ITLB PREFETCH  REQUESTED:          0  ISSUED:          0  USEFUL:          0  USELESS:          0
cpu0_ITLB AVERAGE MISS LATENCY: 9 cycles
cpu0_L1I TOTAL     ACCESS:     869564  HIT:     868812  MISS:        752
cpu0_L1I LOAD      ACCESS:     869564  HIT:     868812  MISS:        752
cpu0_L1I RFO       ACCESS:          0  HIT:          0  MISS:          0
cpu0_L1I PREFETCH  ACCESS:          0  HIT:          0  MISS:          0
cpu0_L1I WRITEBACK ACCESS:          0  HIT:          0  MISS:          0
cpu0_L1I TRANSLATION ACCESS:          0  HIT:          0  MISS:          0
cpu0_L1I PREFETCH  REQUESTED:          0  ISSUED:          0  USEFUL:          0  USELESS:          0
cpu0_L1I AVERAGE MISS LATENCY: 70.8856 cycles
cpu0_STLB TOTAL     ACCESS:      27298  HIT:      26524  MISS:        774
cpu0_STLB LOAD      ACCESS:      26199  HIT:      25859  MISS:        340
cpu0_STLB RFO       ACCESS:       1099  HIT:        665  MISS:        434
cpu0_STLB PREFETCH  ACCESS:          0  HIT:          0  MISS:          0
cpu0_STLB WRITEBACK ACCESS:          0  HIT:          0  MISS:          0
cpu0_STLB TRANSLATION ACCESS:          0  HIT:          0  MISS:          0
cpu0_STLB PREFETCH  REQUESTED:          0  ISSUED:          0  USEFUL:          0  USELESS:          0
cpu0_STLB AVERAGE MISS LATENCY: 210.506 cycles
cpu0_L1D TOTAL     ACCESS:   16709034  HIT:   15381742  MISS:    1327292
cpu0_L1D LOAD      ACCESS:   11990939  HIT:   10715849  MISS:    1275090
cpu0_L1D RFO       ACCESS:    4717324  HIT:    4665169  MISS:      52155
cpu0_L1D PREFETCH  ACCESS:          0  HIT:          0  MISS:          0
cpu0_L1D WRITEBACK ACCESS:          0  HIT:          0  MISS:          0
cpu0_L1D TRANSLATION ACCESS:        771  HIT:        724  MISS:         47
cpu0_L1D PREFETCH  REQUESTED:          0  ISSUED:          0  USEFUL:          0  USELESS:          0
cpu0_L1D AVERAGE MISS LATENCY: 30.1295 cycles
cpu0_L2C TOTAL     ACCESS:    1837947  HIT:    1545989  MISS:     291958
cpu0_L2C LOAD      ACCESS:    1275831  HIT:    1023137  MISS:     252694
cpu0_L2C RFO       ACCESS:      52155  HIT:      13805  MISS:      38350
cpu0_L2C PREFETCH  ACCESS:          0  HIT:          0  MISS:          0
cpu0_L2C WRITEBACK ACCESS:     509914  HIT:     509016  MISS:        898
cpu0_L2C TRANSLATION ACCESS:         47  HIT:         31  MISS:         16
cpu0_L2C PREFETCH  REQUESTED:          0  ISSUED:          0  USEFUL:          0  USELESS:          0
cpu0_L2C AVERAGE MISS LATENCY: 86.4179 cycles
LLC TOTAL     ACCESS:     431001  HIT:     335269  MISS:      95732
LLC LOAD      ACCESS:     252694  HIT:     197271  MISS:      55423
LLC RFO       ACCESS:      38349  HIT:       8802  MISS:      29547
LLC PREFETCH  ACCESS:          0  HIT:          0  MISS:          0
LLC WRITEBACK ACCESS:     139942  HIT:     129185  MISS:      10757
LLC TRANSLATION ACCESS:         16  HIT:         11  MISS:          5
LLC PREFETCH  REQUESTED:          0  ISSUED:          0  USEFUL:          0  USELESS:          0
LLC AVERAGE MISS LATENCY: 199.703 cycles

DRAM Statistics
 CHANNEL 0
 RQ ROW_BUFFER_HIT:      46692  ROW_BUFFER_MISS:      38186
 DBUS AVG_CONGESTED_CYCLE:    3.94664
 WQ ROW_BUFFER_HIT:       4316  ROW_BUFFER_MISS:      22632  FULL:       9313


CPU 0 Branch Prediction Accuracy: 96.6151% MPKI: 1.9742 Average ROB Occupancy at Mispredict: 164.988
Branch type MPKI
BRANCH_DIRECT_JUMP: 0.00017
BRANCH_INDIRECT: 0.00062
BRANCH_CONDITIONAL: 1.97308
BRANCH_DIRECT_CALL: 0.00017
BRANCH_INDIRECT_CALL: 0
BRANCH_RETURN: 0.00016

