
*** ChampSim Multicore Out-of-Order Simulator ***

Warmup Instructions: 10000000
Simulation Instructions: 100000000
Number of CPUs: 1
Off-chip DRAM Size: 4 GiB Channels: 1 Width: 64-bit Data Rate: 3200 MT/s

VirtualMemory physical capacity: 8588881920 num_ppages: 2096895
VirtualMemory page size: 4096 log2_page_size: 12

CPU 0 runs /datasets/cs240c-wi22-a00-public/data/Assignment2/GemsFDTD_716B.trace.xz
CPU 0 Bimodal branch predictor
Basic BTB sets: 1024 ways: 8 indirect buffer size: 4096 RAS size: 64
Initialize Hawkeye state
Initialize SRRIP state
Heartbeat CPU 0 instructions: 10000004 cycles: 2536409 heartbeat IPC: 3.94258 cumulative IPC: 3.94258 (Simulation time: 0 hr 0 min 21 sec) 

Warmup complete CPU 0 instructions: 10000004 cycles: 2536409 (Simulation time: 0 hr 0 min 21 sec) 

Heartbeat CPU 0 instructions: 20000003 cycles: 24746558 heartbeat IPC: 0.450245 cumulative IPC: 0.450245 (Simulation time: 0 hr 1 min 53 sec) 
Heartbeat CPU 0 instructions: 30000002 cycles: 38417533 heartbeat IPC: 0.731477 cumulative IPC: 0.557396 (Simulation time: 0 hr 3 min 2 sec) 
Heartbeat CPU 0 instructions: 40000000 cycles: 49794337 heartbeat IPC: 0.878981 cumulative IPC: 0.634814 (Simulation time: 0 hr 4 min 3 sec) 
Heartbeat CPU 0 instructions: 50000002 cycles: 67870694 heartbeat IPC: 0.553209 cumulative IPC: 0.612236 (Simulation time: 0 hr 5 min 25 sec) 
Heartbeat CPU 0 instructions: 60000002 cycles: 83492801 heartbeat IPC: 0.640119 cumulative IPC: 0.617616 (Simulation time: 0 hr 6 min 38 sec) 
Heartbeat CPU 0 instructions: 70000001 cycles: 95704056 heartbeat IPC: 0.818917 cumulative IPC: 0.644 (Simulation time: 0 hr 7 min 41 sec) 
Heartbeat CPU 0 instructions: 80000003 cycles: 110400635 heartbeat IPC: 0.680431 cumulative IPC: 0.648964 (Simulation time: 0 hr 8 min 51 sec) 
Heartbeat CPU 0 instructions: 90000001 cycles: 128741565 heartbeat IPC: 0.545229 cumulative IPC: 0.633888 (Simulation time: 0 hr 10 min 11 sec) 
Heartbeat CPU 0 instructions: 100000001 cycles: 141593372 heartbeat IPC: 0.778101 cumulative IPC: 0.647217 (Simulation time: 0 hr 11 min 16 sec) 
Heartbeat CPU 0 instructions: 110000004 cycles: 153116600 heartbeat IPC: 0.867813 cumulative IPC: 0.664098 (Simulation time: 0 hr 12 min 16 sec) 
Finished CPU 0 instructions: 100000000 cycles: 150580191 cumulative IPC: 0.664098 (Simulation time: 0 hr 12 min 16 sec) 

ChampSim completed all CPUs

Region of Interest Statistics

CPU 0 cumulative IPC: 0.664098 instructions: 100000000 cycles: 150580191
cpu0_DTLB TOTAL     ACCESS:   29898582  HIT:   26868715  MISS:    3029867
cpu0_DTLB LOAD      ACCESS:   20919239  HIT:   17890259  MISS:    3028980
cpu0_DTLB RFO       ACCESS:    8979343  HIT:    8978456  MISS:        887
cpu0_DTLB PREFETCH  ACCESS:          0  HIT:          0  MISS:          0
cpu0_DTLB WRITEBACK ACCESS:          0  HIT:          0  MISS:          0
cpu0_DTLB TRANSLATION ACCESS:          0  HIT:          0  MISS:          0
cpu0_DTLB PREFETCH  REQUESTED:          0  ISSUED:          0  USEFUL:          0  USELESS:          0
cpu0_DTLB AVERAGE MISS LATENCY: 13.8477 cycles
cpu0_ITLB TOTAL     ACCESS:    1847931  HIT:    1847929  MISS:          2
cpu0_ITLB LOAD      ACCESS:    1847931  HIT:    1847929  MISS:          2
cpu0_ITLB RFO       ACCESS:          0  HIT:          0  MISS:          0
cpu0_ITLB PREFETCH  ACCESS:          0  HIT:          0  MISS:          0
cpu0_ITLB WRITEBACK ACCESS:          0  HIT:          0  MISS:          0
cpu0_ITLB TRANSLATION ACCESS:          0  HIT:          0  MISS:          0
cpu0_ITLB PREFETCH  REQUESTED:          0  ISSUED:          0  USEFUL:          0  USELESS:          0
cpu0_ITLB AVERAGE MISS LATENCY: 475.5 cycles
cpu0_L1I TOTAL     ACCESS:    7857439  HIT:    7857317  MISS:        122
cpu0_L1I LOAD      ACCESS:    7857439  HIT:    7857317  MISS:        122
cpu0_L1I RFO       ACCESS:          0  HIT:          0  MISS:          0
cpu0_L1I PREFETCH  ACCESS:          0  HIT:          0  MISS:          0
cpu0_L1I WRITEBACK ACCESS:          0  HIT:          0  MISS:          0
cpu0_L1I TRANSLATION ACCESS:          0  HIT:          0  MISS:          0
cpu0_L1I PREFETCH  REQUESTED:          0  ISSUED:          0  USEFUL:          0  USELESS:          0
cpu0_L1I AVERAGE MISS LATENCY: 278.779 cycles
cpu0_STLB TOTAL     ACCESS:    3029870  HIT:    2757417  MISS:     272453
cpu0_STLB LOAD      ACCESS:    3028983  HIT:    2756530  MISS:     272453
cpu0_STLB RFO       ACCESS:        887  HIT:        887  MISS:          0
cpu0_STLB PREFETCH  ACCESS:          0  HIT:          0  MISS:          0
cpu0_STLB WRITEBACK ACCESS:          0  HIT:          0  MISS:          0
cpu0_STLB TRANSLATION ACCESS:          0  HIT:          0  MISS:          0
cpu0_STLB PREFETCH  REQUESTED:          0  ISSUED:          0  USEFUL:          0  USELESS:          0
cpu0_STLB AVERAGE MISS LATENCY: 51.5139 cycles
cpu0_L1D TOTAL     ACCESS:   34797388  HIT:   26554580  MISS:    8242808
cpu0_L1D LOAD      ACCESS:   22663516  HIT:   14444315  MISS:    8219201
cpu0_L1D RFO       ACCESS:   11866755  HIT:   11866749  MISS:          6
cpu0_L1D PREFETCH  ACCESS:          0  HIT:          0  MISS:          0
cpu0_L1D WRITEBACK ACCESS:          0  HIT:          0  MISS:          0
cpu0_L1D TRANSLATION ACCESS:     267117  HIT:     243516  MISS:      23601
cpu0_L1D PREFETCH  REQUESTED:          0  ISSUED:          0  USEFUL:          0  USELESS:          0
cpu0_L1D AVERAGE MISS LATENCY: 69.0055 cycles
cpu0_L2C TOTAL     ACCESS:    9425514  HIT:    7934289  MISS:    1491225
cpu0_L2C LOAD      ACCESS:    8219323  HIT:    6728725  MISS:    1490598
cpu0_L2C RFO       ACCESS:          6  HIT:          6  MISS:          0
cpu0_L2C PREFETCH  ACCESS:          0  HIT:          0  MISS:          0
cpu0_L2C WRITEBACK ACCESS:    1182584  HIT:    1182545  MISS:         39
cpu0_L2C TRANSLATION ACCESS:      23601  HIT:      23013  MISS:        588
cpu0_L2C PREFETCH  REQUESTED:          0  ISSUED:          0  USEFUL:          0  USELESS:          0
cpu0_L2C AVERAGE MISS LATENCY: 318.735 cycles
LLC TOTAL     ACCESS:    1525133  HIT:      97285  MISS:    1427848
LLC LOAD      ACCESS:    1490493  HIT:      64100  MISS:    1426393
LLC RFO       ACCESS:          0  HIT:          0  MISS:          0
LLC PREFETCH  ACCESS:          0  HIT:          0  MISS:          0
LLC WRITEBACK ACCESS:      34052  HIT:      32882  MISS:       1170
LLC TRANSLATION ACCESS:        588  HIT:        303  MISS:        285
LLC PREFETCH  REQUESTED:          0  ISSUED:          0  USEFUL:          0  USELESS:          0
LLC AVERAGE MISS LATENCY: 310.952 cycles

DRAM Statistics
 CHANNEL 0
 RQ ROW_BUFFER_HIT:         67  ROW_BUFFER_MISS:    1426593
 DBUS AVG_CONGESTED_CYCLE:    3.94975
 WQ ROW_BUFFER_HIT:        702  ROW_BUFFER_MISS:      12624  FULL:          0


CPU 0 Branch Prediction Accuracy: 98.9038% MPKI: 0.06477 Average ROB Occupancy at Mispredict: 248.601
Branch type MPKI
BRANCH_DIRECT_JUMP: 0
BRANCH_INDIRECT: 0
BRANCH_CONDITIONAL: 0.06477
BRANCH_DIRECT_CALL: 0
BRANCH_INDIRECT_CALL: 0
BRANCH_RETURN: 0

