
*** ChampSim Multicore Out-of-Order Simulator ***

Warmup Instructions: 10000000
Simulation Instructions: 100000000
Number of CPUs: 1
Off-chip DRAM Size: 4 GiB Channels: 1 Width: 64-bit Data Rate: 3200 MT/s

VirtualMemory physical capacity: 8588881920 num_ppages: 2096895
VirtualMemory page size: 4096 log2_page_size: 12

CPU 0 runs /datasets/cs240c-wi22-a00-public/data/Assignment2/hmmer_7B.trace.xz
CPU 0 Bimodal branch predictor
Basic BTB sets: 1024 ways: 8 indirect buffer size: 4096 RAS size: 64
Initialize Hawkeye state
Initialize SRRIP state
Heartbeat CPU 0 instructions: 10000004 cycles: 3986065 heartbeat IPC: 2.50874 cumulative IPC: 2.50874 (Simulation time: 0 hr 0 min 37 sec) 

Warmup complete CPU 0 instructions: 10000004 cycles: 3986065 (Simulation time: 0 hr 0 min 37 sec) 

Heartbeat CPU 0 instructions: 20000004 cycles: 9244388 heartbeat IPC: 1.90175 cumulative IPC: 1.90175 (Simulation time: 0 hr 1 min 28 sec) 
Heartbeat CPU 0 instructions: 30000001 cycles: 14163950 heartbeat IPC: 2.0327 cumulative IPC: 1.96504 (Simulation time: 0 hr 2 min 17 sec) 
Heartbeat CPU 0 instructions: 40000001 cycles: 18716411 heartbeat IPC: 2.19661 cumulative IPC: 2.03661 (Simulation time: 0 hr 3 min 5 sec) 
Heartbeat CPU 0 instructions: 50000000 cycles: 23989298 heartbeat IPC: 1.89649 cumulative IPC: 1.99968 (Simulation time: 0 hr 3 min 55 sec) 
Heartbeat CPU 0 instructions: 60000000 cycles: 28316331 heartbeat IPC: 2.31105 cumulative IPC: 2.05505 (Simulation time: 0 hr 4 min 42 sec) 
Heartbeat CPU 0 instructions: 70000003 cycles: 32637750 heartbeat IPC: 2.31406 cumulative IPC: 2.09412 (Simulation time: 0 hr 5 min 28 sec) 
Heartbeat CPU 0 instructions: 80000001 cycles: 36947467 heartbeat IPC: 2.32034 cumulative IPC: 2.1237 (Simulation time: 0 hr 6 min 15 sec) 
Heartbeat CPU 0 instructions: 90000004 cycles: 41266974 heartbeat IPC: 2.31508 cumulative IPC: 2.14587 (Simulation time: 0 hr 7 min 2 sec) 
Heartbeat CPU 0 instructions: 100000002 cycles: 45585881 heartbeat IPC: 2.3154 cumulative IPC: 2.16347 (Simulation time: 0 hr 7 min 49 sec) 
Heartbeat CPU 0 instructions: 110000001 cycles: 49913389 heartbeat IPC: 2.3108 cumulative IPC: 2.17735 (Simulation time: 0 hr 8 min 36 sec) 
Finished CPU 0 instructions: 100000002 cycles: 45927325 cumulative IPC: 2.17735 (Simulation time: 0 hr 8 min 36 sec) 

ChampSim completed all CPUs

Region of Interest Statistics

CPU 0 cumulative IPC: 2.17735 instructions: 100000002 cycles: 45927325
cpu0_DTLB TOTAL     ACCESS:   40544567  HIT:   40530412  MISS:      14155
cpu0_DTLB LOAD      ACCESS:   32389401  HIT:   32381683  MISS:       7718
cpu0_DTLB RFO       ACCESS:    8155166  HIT:    8148729  MISS:       6437
cpu0_DTLB PREFETCH  ACCESS:          0  HIT:          0  MISS:          0
cpu0_DTLB WRITEBACK ACCESS:          0  HIT:          0  MISS:          0
cpu0_DTLB TRANSLATION ACCESS:          0  HIT:          0  MISS:          0
cpu0_DTLB PREFETCH  REQUESTED:          0  ISSUED:          0  USEFUL:          0  USELESS:          0
cpu0_DTLB AVERAGE MISS LATENCY: 14.9365 cycles
cpu0_ITLB TOTAL     ACCESS:     798424  HIT:     798352  MISS:         72
cpu0_ITLB LOAD      ACCESS:     798424  HIT:     798352  MISS:         72
cpu0_ITLB RFO       ACCESS:          0  HIT:          0  MISS:          0
cpu0_ITLB PREFETCH  ACCESS:          0  HIT:          0  MISS:          0
cpu0_ITLB WRITEBACK ACCESS:          0  HIT:          0  MISS:          0
cpu0_ITLB TRANSLATION ACCESS:          0  HIT:          0  MISS:          0
cpu0_ITLB PREFETCH  REQUESTED:          0  ISSUED:          0  USEFUL:          0  USELESS:          0
cpu0_ITLB AVERAGE MISS LATENCY: 21 cycles
cpu0_L1I TOTAL     ACCESS:      62207  HIT:      62102  MISS:        105
cpu0_L1I LOAD      ACCESS:      62207  HIT:      62102  MISS:        105
cpu0_L1I RFO       ACCESS:          0  HIT:          0  MISS:          0
cpu0_L1I PREFETCH  ACCESS:          0  HIT:          0  MISS:          0
cpu0_L1I WRITEBACK ACCESS:          0  HIT:          0  MISS:          0
cpu0_L1I TRANSLATION ACCESS:          0  HIT:          0  MISS:          0
cpu0_L1I PREFETCH  REQUESTED:          0  ISSUED:          0  USEFUL:          0  USELESS:          0
cpu0_L1I AVERAGE MISS LATENCY: 107.238 cycles
cpu0_STLB TOTAL     ACCESS:      14227  HIT:      13772  MISS:        455
cpu0_STLB LOAD      ACCESS:       7790  HIT:       7782  MISS:          8
cpu0_STLB RFO       ACCESS:       6437  HIT:       5990  MISS:        447
cpu0_STLB PREFETCH  ACCESS:          0  HIT:          0  MISS:          0
cpu0_STLB WRITEBACK ACCESS:          0  HIT:          0  MISS:          0
cpu0_STLB TRANSLATION ACCESS:          0  HIT:          0  MISS:          0
cpu0_STLB PREFETCH  REQUESTED:          0  ISSUED:          0  USEFUL:          0  USELESS:          0
cpu0_STLB AVERAGE MISS LATENCY: 186.382 cycles
cpu0_L1D TOTAL     ACCESS:   33493704  HIT:   33023594  MISS:     470110
cpu0_L1D LOAD      ACCESS:   28672200  HIT:   28510821  MISS:     161379
cpu0_L1D RFO       ACCESS:    4821050  HIT:    4512342  MISS:     308708
cpu0_L1D PREFETCH  ACCESS:          0  HIT:          0  MISS:          0
cpu0_L1D WRITEBACK ACCESS:          0  HIT:          0  MISS:          0
cpu0_L1D TRANSLATION ACCESS:        454  HIT:        431  MISS:         23
cpu0_L1D PREFETCH  REQUESTED:          0  ISSUED:          0  USEFUL:          0  USELESS:          0
cpu0_L1D AVERAGE MISS LATENCY: 250.714 cycles
cpu0_L2C TOTAL     ACCESS:     777172  HIT:     472247  MISS:     304925
cpu0_L2C LOAD      ACCESS:     161484  HIT:     149247  MISS:      12237
cpu0_L2C RFO       ACCESS:     308708  HIT:      16075  MISS:     292633
cpu0_L2C PREFETCH  ACCESS:          0  HIT:          0  MISS:          0
cpu0_L2C WRITEBACK ACCESS:     306957  HIT:     306910  MISS:         47
cpu0_L2C TRANSLATION ACCESS:         23  HIT:         15  MISS:          8
cpu0_L2C PREFETCH  REQUESTED:          0  ISSUED:          0  USEFUL:          0  USELESS:          0
cpu0_L2C AVERAGE MISS LATENCY: 369.592 cycles
LLC TOTAL     ACCESS:     596352  HIT:     452523  MISS:     143829
LLC LOAD      ACCESS:      12236  HIT:      10836  MISS:       1400
LLC RFO       ACCESS:     292632  HIT:     212115  MISS:      80517
LLC PREFETCH  ACCESS:          0  HIT:          0  MISS:          0
LLC WRITEBACK ACCESS:     291476  HIT:     229567  MISS:      61909
LLC TRANSLATION ACCESS:          8  HIT:          5  MISS:          3
LLC PREFETCH  REQUESTED:          0  ISSUED:          0  USEFUL:          0  USELESS:          0
LLC AVERAGE MISS LATENCY: 738.955 cycles

DRAM Statistics
 CHANNEL 0
 RQ ROW_BUFFER_HIT:        932  ROW_BUFFER_MISS:      80984
 DBUS AVG_CONGESTED_CYCLE:    3.99444
 WQ ROW_BUFFER_HIT:       4157  ROW_BUFFER_MISS:      74513  FULL:      10697


CPU 0 Branch Prediction Accuracy: 98.9368% MPKI: 0.40856 Average ROB Occupancy at Mispredict: 252.409
Branch type MPKI
BRANCH_DIRECT_JUMP: 0.00016
BRANCH_INDIRECT: 0.00157
BRANCH_CONDITIONAL: 0.40659
BRANCH_DIRECT_CALL: 9e-05
BRANCH_INDIRECT_CALL: 3e-05
BRANCH_RETURN: 0.00012

