
*** ChampSim Multicore Out-of-Order Simulator ***

Warmup Instructions: 10000000
Simulation Instructions: 100000000
Number of CPUs: 1
Off-chip DRAM Size: 4 GiB Channels: 1 Width: 64-bit Data Rate: 3200 MT/s

VirtualMemory physical capacity: 8588881920 num_ppages: 2096895
VirtualMemory page size: 4096 log2_page_size: 12

CPU 0 runs /datasets/cs240c-wi22-a00-public/data/Assignment2/lbm_564B.trace.xz
CPU 0 Bimodal branch predictor
Basic BTB sets: 1024 ways: 8 indirect buffer size: 4096 RAS size: 64
Initialize Hawkeye state
Initialize SRRIP state
Heartbeat CPU 0 instructions: 10000000 cycles: 2507076 heartbeat IPC: 3.98871 cumulative IPC: 3.98871 (Simulation time: 0 hr 0 min 19 sec) 

Warmup complete CPU 0 instructions: 10000004 cycles: 2507077 (Simulation time: 0 hr 0 min 19 sec) 

Heartbeat CPU 0 instructions: 20000004 cycles: 35030072 heartbeat IPC: 0.307475 cumulative IPC: 0.307475 (Simulation time: 0 hr 1 min 53 sec) 
Heartbeat CPU 0 instructions: 30000000 cycles: 89479457 heartbeat IPC: 0.183657 cumulative IPC: 0.229958 (Simulation time: 0 hr 5 min 4 sec) 
Heartbeat CPU 0 instructions: 40000000 cycles: 120927570 heartbeat IPC: 0.317984 cumulative IPC: 0.253334 (Simulation time: 0 hr 6 min 35 sec) 
Heartbeat CPU 0 instructions: 50000000 cycles: 151808250 heartbeat IPC: 0.323827 cumulative IPC: 0.267915 (Simulation time: 0 hr 8 min 4 sec) 
Heartbeat CPU 0 instructions: 60000001 cycles: 183445011 heartbeat IPC: 0.316088 cumulative IPC: 0.276338 (Simulation time: 0 hr 9 min 36 sec) 
Heartbeat CPU 0 instructions: 70000002 cycles: 215984717 heartbeat IPC: 0.307317 cumulative IPC: 0.28106 (Simulation time: 0 hr 11 min 11 sec) 
Heartbeat CPU 0 instructions: 80000004 cycles: 250224962 heartbeat IPC: 0.292054 cumulative IPC: 0.28258 (Simulation time: 0 hr 12 min 53 sec) 
Heartbeat CPU 0 instructions: 90000003 cycles: 283700486 heartbeat IPC: 0.298726 cumulative IPC: 0.284502 (Simulation time: 0 hr 14 min 34 sec) 
Heartbeat CPU 0 instructions: 100000004 cycles: 317459830 heartbeat IPC: 0.296214 cumulative IPC: 0.285757 (Simulation time: 0 hr 16 min 17 sec) 
Heartbeat CPU 0 instructions: 110000003 cycles: 353355239 heartbeat IPC: 0.278587 cumulative IPC: 0.285024 (Simulation time: 0 hr 18 min 7 sec) 
Finished CPU 0 instructions: 100000004 cycles: 350848163 cumulative IPC: 0.285024 (Simulation time: 0 hr 18 min 7 sec) 

ChampSim completed all CPUs

Region of Interest Statistics

CPU 0 cumulative IPC: 0.285024 instructions: 100000004 cycles: 350848163
cpu0_DTLB TOTAL     ACCESS:   13898322  HIT:   13845548  MISS:      52774
cpu0_DTLB LOAD      ACCESS:    6989851  HIT:    6976652  MISS:      13199
cpu0_DTLB RFO       ACCESS:    6908471  HIT:    6868896  MISS:      39575
cpu0_DTLB PREFETCH  ACCESS:          0  HIT:          0  MISS:          0
cpu0_DTLB WRITEBACK ACCESS:          0  HIT:          0  MISS:          0
cpu0_DTLB TRANSLATION ACCESS:          0  HIT:          0  MISS:          0
cpu0_DTLB PREFETCH  REQUESTED:          0  ISSUED:          0  USEFUL:          0  USELESS:          0
cpu0_DTLB AVERAGE MISS LATENCY: 441.497 cycles
cpu0_ITLB TOTAL     ACCESS:     150140  HIT:     150139  MISS:          1
cpu0_ITLB LOAD      ACCESS:     150140  HIT:     150139  MISS:          1
cpu0_ITLB RFO       ACCESS:          0  HIT:          0  MISS:          0
cpu0_ITLB PREFETCH  ACCESS:          0  HIT:          0  MISS:          0
cpu0_ITLB WRITEBACK ACCESS:          0  HIT:          0  MISS:          0
cpu0_ITLB TRANSLATION ACCESS:          0  HIT:          0  MISS:          0
cpu0_ITLB PREFETCH  REQUESTED:          0  ISSUED:          0  USEFUL:          0  USELESS:          0
cpu0_ITLB AVERAGE MISS LATENCY: 2059 cycles
cpu0_L1I TOTAL     ACCESS:         12  HIT:          6  MISS:          6
cpu0_L1I LOAD      ACCESS:         12  HIT:          6  MISS:          6
cpu0_L1I RFO       ACCESS:          0  HIT:          0  MISS:          0
cpu0_L1I PREFETCH  ACCESS:          0  HIT:          0  MISS:          0
cpu0_L1I WRITEBACK ACCESS:          0  HIT:          0  MISS:          0
cpu0_L1I TRANSLATION ACCESS:          0  HIT:          0  MISS:          0
cpu0_L1I PREFETCH  REQUESTED:          0  ISSUED:          0  USEFUL:          0  USELESS:          0
cpu0_L1I AVERAGE MISS LATENCY: 561.833 cycles
cpu0_STLB TOTAL     ACCESS:      52775  HIT:          5  MISS:      52770
cpu0_STLB LOAD      ACCESS:      13200  HIT:          0  MISS:      13200
cpu0_STLB RFO       ACCESS:      39575  HIT:          5  MISS:      39570
cpu0_STLB PREFETCH  ACCESS:          0  HIT:          0  MISS:          0
cpu0_STLB WRITEBACK ACCESS:          0  HIT:          0  MISS:          0
cpu0_STLB TRANSLATION ACCESS:          0  HIT:          0  MISS:          0
cpu0_STLB PREFETCH  REQUESTED:          0  ISSUED:          0  USEFUL:          0  USELESS:          0
cpu0_STLB AVERAGE MISS LATENCY: 432.569 cycles
cpu0_L1D TOTAL     ACCESS:   15375213  HIT:    9809019  MISS:    5566194
cpu0_L1D LOAD      ACCESS:    4367552  HIT:    3523965  MISS:     843587
cpu0_L1D RFO       ACCESS:   10954906  HIT:    6232350  MISS:    4722556
cpu0_L1D PREFETCH  ACCESS:          0  HIT:          0  MISS:          0
cpu0_L1D WRITEBACK ACCESS:          0  HIT:          0  MISS:          0
cpu0_L1D TRANSLATION ACCESS:      52755  HIT:      52704  MISS:         51
cpu0_L1D PREFETCH  REQUESTED:          0  ISSUED:          0  USEFUL:          0  USELESS:          0
cpu0_L1D AVERAGE MISS LATENCY: 468.959 cycles
cpu0_L2C TOTAL     ACCESS:   10288752  HIT:    6913154  MISS:    3375598
cpu0_L2C LOAD      ACCESS:     843593  HIT:        223  MISS:     843370
cpu0_L2C RFO       ACCESS:    4722554  HIT:    2190503  MISS:    2532051
cpu0_L2C PREFETCH  ACCESS:          0  HIT:          0  MISS:          0
cpu0_L2C WRITEBACK ACCESS:    4722554  HIT:    4722428  MISS:        126
cpu0_L2C TRANSLATION ACCESS:         51  HIT:          0  MISS:         51
cpu0_L2C PREFETCH  REQUESTED:          0  ISSUED:          0  USEFUL:          0  USELESS:          0
cpu0_L2C AVERAGE MISS LATENCY: 753.854 cycles
LLC TOTAL     ACCESS:    5907567  HIT:    1715741  MISS:    4191826
LLC LOAD      ACCESS:     843370  HIT:         69  MISS:     843301
LLC RFO       ACCESS:    2532050  HIT:     569047  MISS:    1963003
LLC PREFETCH  ACCESS:          0  HIT:          0  MISS:          0
LLC WRITEBACK ACCESS:    2532096  HIT:    1146613  MISS:    1385483
LLC TRANSLATION ACCESS:         51  HIT:         12  MISS:         39
LLC PREFETCH  REQUESTED:          0  ISSUED:          0  USEFUL:          0  USELESS:          0
LLC AVERAGE MISS LATENCY: 590.154 cycles

DRAM Statistics
 CHANNEL 0
 RQ ROW_BUFFER_HIT:      50953  ROW_BUFFER_MISS:    2755055
 DBUS AVG_CONGESTED_CYCLE:    3.99443
 WQ ROW_BUFFER_HIT:      25015  ROW_BUFFER_MISS:    2116256  FULL:        139


CPU 0 Branch Prediction Accuracy: 99.0902% MPKI: 0.11542 Average ROB Occupancy at Mispredict: 182.131
Branch type MPKI
BRANCH_DIRECT_JUMP: 2e-05
BRANCH_INDIRECT: 0
BRANCH_CONDITIONAL: 0.11536
BRANCH_DIRECT_CALL: 2e-05
BRANCH_INDIRECT_CALL: 0
BRANCH_RETURN: 2e-05

