
*** ChampSim Multicore Out-of-Order Simulator ***

Warmup Instructions: 10000000
Simulation Instructions: 100000000
Number of CPUs: 1
Off-chip DRAM Size: 4 GiB Channels: 1 Width: 64-bit Data Rate: 3200 MT/s

VirtualMemory physical capacity: 8588881920 num_ppages: 2096895
VirtualMemory page size: 4096 log2_page_size: 12

CPU 0 runs /datasets/cs240c-wi22-a00-public/data/Assignment2/leslie3d_94B.trace.xz
CPU 0 Bimodal branch predictor
Basic BTB sets: 1024 ways: 8 indirect buffer size: 4096 RAS size: 64
Initialize Hawkeye state
Initialize SRRIP state
Heartbeat CPU 0 instructions: 10000002 cycles: 4308717 heartbeat IPC: 2.32088 cumulative IPC: 2.32088 (Simulation time: 0 hr 0 min 45 sec) 

Warmup complete CPU 0 instructions: 10000002 cycles: 4308717 (Simulation time: 0 hr 0 min 45 sec) 

Heartbeat CPU 0 instructions: 20000001 cycles: 25655865 heartbeat IPC: 0.468447 cumulative IPC: 0.468447 (Simulation time: 0 hr 2 min 19 sec) 
Heartbeat CPU 0 instructions: 30000001 cycles: 76091843 heartbeat IPC: 0.198271 cumulative IPC: 0.278617 (Simulation time: 0 hr 5 min 39 sec) 
Heartbeat CPU 0 instructions: 40000001 cycles: 86364280 heartbeat IPC: 0.973479 cumulative IPC: 0.365606 (Simulation time: 0 hr 6 min 45 sec) 
Heartbeat CPU 0 instructions: 50000002 cycles: 96663763 heartbeat IPC: 0.970923 cumulative IPC: 0.433111 (Simulation time: 0 hr 7 min 51 sec) 
Heartbeat CPU 0 instructions: 60000003 cycles: 106884263 heartbeat IPC: 0.978426 cumulative IPC: 0.487446 (Simulation time: 0 hr 8 min 57 sec) 
Heartbeat CPU 0 instructions: 70000001 cycles: 117134402 heartbeat IPC: 0.975596 cumulative IPC: 0.531794 (Simulation time: 0 hr 10 min 3 sec) 
Heartbeat CPU 0 instructions: 80000003 cycles: 130771488 heartbeat IPC: 0.733295 cumulative IPC: 0.553523 (Simulation time: 0 hr 11 min 21 sec) 
Heartbeat CPU 0 instructions: 90000004 cycles: 164411291 heartbeat IPC: 0.297267 cumulative IPC: 0.49968 (Simulation time: 0 hr 13 min 50 sec) 
Heartbeat CPU 0 instructions: 100000001 cycles: 219863802 heartbeat IPC: 0.180334 cumulative IPC: 0.417527 (Simulation time: 0 hr 17 min 56 sec) 
Heartbeat CPU 0 instructions: 110000004 cycles: 236394886 heartbeat IPC: 0.604921 cumulative IPC: 0.430874 (Simulation time: 0 hr 19 min 8 sec) 
Finished CPU 0 instructions: 100000002 cycles: 232086169 cumulative IPC: 0.430874 (Simulation time: 0 hr 19 min 8 sec) 

ChampSim completed all CPUs

Region of Interest Statistics

CPU 0 cumulative IPC: 0.430874 instructions: 100000002 cycles: 232086169
cpu0_DTLB TOTAL     ACCESS:   26703230  HIT:   26590581  MISS:     112649
cpu0_DTLB LOAD      ACCESS:   21449152  HIT:   21353401  MISS:      95751
cpu0_DTLB RFO       ACCESS:    5254078  HIT:    5237180  MISS:      16898
cpu0_DTLB PREFETCH  ACCESS:          0  HIT:          0  MISS:          0
cpu0_DTLB WRITEBACK ACCESS:          0  HIT:          0  MISS:          0
cpu0_DTLB TRANSLATION ACCESS:          0  HIT:          0  MISS:          0
cpu0_DTLB PREFETCH  REQUESTED:          0  ISSUED:          0  USEFUL:          0  USELESS:          0
cpu0_DTLB AVERAGE MISS LATENCY: 99.5519 cycles
cpu0_ITLB TOTAL     ACCESS:    3131028  HIT:    3130971  MISS:         57
cpu0_ITLB LOAD      ACCESS:    3131028  HIT:    3130971  MISS:         57
cpu0_ITLB RFO       ACCESS:          0  HIT:          0  MISS:          0
cpu0_ITLB PREFETCH  ACCESS:          0  HIT:          0  MISS:          0
cpu0_ITLB WRITEBACK ACCESS:          0  HIT:          0  MISS:          0
cpu0_ITLB TRANSLATION ACCESS:          0  HIT:          0  MISS:          0
cpu0_ITLB PREFETCH  REQUESTED:          0  ISSUED:          0  USEFUL:          0  USELESS:          0
cpu0_ITLB AVERAGE MISS LATENCY: 245.158 cycles
cpu0_L1I TOTAL     ACCESS:    1637651  HIT:    1636579  MISS:       1072
cpu0_L1I LOAD      ACCESS:    1637651  HIT:    1636579  MISS:       1072
cpu0_L1I RFO       ACCESS:          0  HIT:          0  MISS:          0
cpu0_L1I PREFETCH  ACCESS:          0  HIT:          0  MISS:          0
cpu0_L1I WRITEBACK ACCESS:          0  HIT:          0  MISS:          0
cpu0_L1I TRANSLATION ACCESS:          0  HIT:          0  MISS:          0
cpu0_L1I PREFETCH  REQUESTED:          0  ISSUED:          0  USEFUL:          0  USELESS:          0
cpu0_L1I AVERAGE MISS LATENCY: 335.979 cycles
cpu0_STLB TOTAL     ACCESS:     112706  HIT:      63010  MISS:      49696
cpu0_STLB LOAD      ACCESS:      95808  HIT:      56447  MISS:      39361
cpu0_STLB RFO       ACCESS:      16898  HIT:       6563  MISS:      10335
cpu0_STLB PREFETCH  ACCESS:          0  HIT:          0  MISS:          0
cpu0_STLB WRITEBACK ACCESS:          0  HIT:          0  MISS:          0
cpu0_STLB TRANSLATION ACCESS:          0  HIT:          0  MISS:          0
cpu0_STLB PREFETCH  REQUESTED:          0  ISSUED:          0  USEFUL:          0  USELESS:          0
cpu0_STLB AVERAGE MISS LATENCY: 205.453 cycles
cpu0_L1D TOTAL     ACCESS:   22215999  HIT:   18180023  MISS:    4035976
cpu0_L1D LOAD      ACCESS:   13837358  HIT:   10748383  MISS:    3088975
cpu0_L1D RFO       ACCESS:    8336217  HIT:    7394128  MISS:     942089
cpu0_L1D PREFETCH  ACCESS:          0  HIT:          0  MISS:          0
cpu0_L1D WRITEBACK ACCESS:          0  HIT:          0  MISS:          0
cpu0_L1D TRANSLATION ACCESS:      42424  HIT:      37512  MISS:       4912
cpu0_L1D PREFETCH  REQUESTED:          0  ISSUED:          0  USEFUL:          0  USELESS:          0
cpu0_L1D AVERAGE MISS LATENCY: 613.484 cycles
cpu0_L2C TOTAL     ACCESS:    5249507  HIT:    2252584  MISS:    2996923
cpu0_L2C LOAD      ACCESS:    3090042  HIT:     791524  MISS:    2298518
cpu0_L2C RFO       ACCESS:     941997  HIT:     246163  MISS:     695834
cpu0_L2C PREFETCH  ACCESS:          0  HIT:          0  MISS:          0
cpu0_L2C WRITEBACK ACCESS:    1212556  HIT:    1210266  MISS:       2290
cpu0_L2C TRANSLATION ACCESS:       4912  HIT:       4631  MISS:        281
cpu0_L2C PREFETCH  REQUESTED:          0  ISSUED:          0  USEFUL:          0  USELESS:          0
cpu0_L2C AVERAGE MISS LATENCY: 811.41 cycles
LLC TOTAL     ACCESS:    3928128  HIT:     655239  MISS:    3272889
LLC LOAD      ACCESS:    2298516  HIT:     397628  MISS:    1900888
LLC RFO       ACCESS:     695824  HIT:      39453  MISS:     656371
LLC PREFETCH  ACCESS:          0  HIT:          0  MISS:          0
LLC WRITEBACK ACCESS:     933507  HIT:     218066  MISS:     715441
LLC TRANSLATION ACCESS:        281  HIT:         92  MISS:        189
LLC PREFETCH  REQUESTED:          0  ISSUED:          0  USEFUL:          0  USELESS:          0
LLC AVERAGE MISS LATENCY: 723.744 cycles

DRAM Statistics
 CHANNEL 0
 RQ ROW_BUFFER_HIT:     170470  ROW_BUFFER_MISS:    2386867
 DBUS AVG_CONGESTED_CYCLE:     3.9734
 WQ ROW_BUFFER_HIT:      48723  ROW_BUFFER_MISS:     814952  FULL:      12735


CPU 0 Branch Prediction Accuracy: 96.9231% MPKI: 1.73686 Average ROB Occupancy at Mispredict: 309.146
Branch type MPKI
BRANCH_DIRECT_JUMP: 0.00082
BRANCH_INDIRECT: 0.00014
BRANCH_CONDITIONAL: 1.73229
BRANCH_DIRECT_CALL: 0.00185
BRANCH_INDIRECT_CALL: 3e-05
BRANCH_RETURN: 0.00173

