
*** ChampSim Multicore Out-of-Order Simulator ***

Warmup Instructions: 10000000
Simulation Instructions: 100000000
Number of CPUs: 1
Off-chip DRAM Size: 4 GiB Channels: 1 Width: 64-bit Data Rate: 3200 MT/s

VirtualMemory physical capacity: 8588881920 num_ppages: 2096895
VirtualMemory page size: 4096 log2_page_size: 12

CPU 0 runs /datasets/cs240c-wi22-a00-public/data/Assignment2/leslie3d_1116B.trace.xz
CPU 0 Bimodal branch predictor
Basic BTB sets: 1024 ways: 8 indirect buffer size: 4096 RAS size: 64
Initialize Hawkeye state
Initialize SRRIP state
Heartbeat CPU 0 instructions: 10000000 cycles: 3692444 heartbeat IPC: 2.70823 cumulative IPC: 2.70823 (Simulation time: 0 hr 0 min 34 sec) 

Warmup complete CPU 0 instructions: 10000005 cycles: 3692445 (Simulation time: 0 hr 0 min 34 sec) 

Heartbeat CPU 0 instructions: 20000000 cycles: 12729237 heartbeat IPC: 1.10659 cumulative IPC: 1.10659 (Simulation time: 0 hr 1 min 34 sec) 
Heartbeat CPU 0 instructions: 30000004 cycles: 21831766 heartbeat IPC: 1.0986 cumulative IPC: 1.10258 (Simulation time: 0 hr 2 min 33 sec) 
Heartbeat CPU 0 instructions: 40000001 cycles: 33480128 heartbeat IPC: 0.85849 cumulative IPC: 1.00713 (Simulation time: 0 hr 3 min 40 sec) 
Heartbeat CPU 0 instructions: 50000000 cycles: 55438281 heartbeat IPC: 0.455412 cumulative IPC: 0.773009 (Simulation time: 0 hr 5 min 22 sec) 
Heartbeat CPU 0 instructions: 60000001 cycles: 108613865 heartbeat IPC: 0.188056 cumulative IPC: 0.476547 (Simulation time: 0 hr 8 min 52 sec) 
Heartbeat CPU 0 instructions: 70000000 cycles: 122755858 heartbeat IPC: 0.707114 cumulative IPC: 0.503933 (Simulation time: 0 hr 10 min 10 sec) 
Heartbeat CPU 0 instructions: 80000001 cycles: 135753135 heartbeat IPC: 0.769392 cumulative IPC: 0.530059 (Simulation time: 0 hr 11 min 25 sec) 
Heartbeat CPU 0 instructions: 90000004 cycles: 149050673 heartbeat IPC: 0.752019 cumulative IPC: 0.550364 (Simulation time: 0 hr 12 min 42 sec) 
Heartbeat CPU 0 instructions: 100000002 cycles: 162177562 heartbeat IPC: 0.761795 cumulative IPC: 0.567877 (Simulation time: 0 hr 13 min 57 sec) 
Heartbeat CPU 0 instructions: 110000001 cycles: 179804996 heartbeat IPC: 0.567297 cumulative IPC: 0.567819 (Simulation time: 0 hr 15 min 25 sec) 
Finished CPU 0 instructions: 100000001 cycles: 176112552 cumulative IPC: 0.567819 (Simulation time: 0 hr 15 min 25 sec) 

ChampSim completed all CPUs

Region of Interest Statistics

CPU 0 cumulative IPC: 0.567819 instructions: 100000001 cycles: 176112552
cpu0_DTLB TOTAL     ACCESS:   25744808  HIT:   25679089  MISS:      65719
cpu0_DTLB LOAD      ACCESS:   21125886  HIT:   21074220  MISS:      51666
cpu0_DTLB RFO       ACCESS:    4618922  HIT:    4604869  MISS:      14053
cpu0_DTLB PREFETCH  ACCESS:          0  HIT:          0  MISS:          0
cpu0_DTLB WRITEBACK ACCESS:          0  HIT:          0  MISS:          0
cpu0_DTLB TRANSLATION ACCESS:          0  HIT:          0  MISS:          0
cpu0_DTLB PREFETCH  REQUESTED:          0  ISSUED:          0  USEFUL:          0  USELESS:          0
cpu0_DTLB AVERAGE MISS LATENCY: 84.8189 cycles
cpu0_ITLB TOTAL     ACCESS:    2860767  HIT:    2860749  MISS:         18
cpu0_ITLB LOAD      ACCESS:    2860767  HIT:    2860749  MISS:         18
cpu0_ITLB RFO       ACCESS:          0  HIT:          0  MISS:          0
cpu0_ITLB PREFETCH  ACCESS:          0  HIT:          0  MISS:          0
cpu0_ITLB WRITEBACK ACCESS:          0  HIT:          0  MISS:          0
cpu0_ITLB TRANSLATION ACCESS:          0  HIT:          0  MISS:          0
cpu0_ITLB PREFETCH  REQUESTED:          0  ISSUED:          0  USEFUL:          0  USELESS:          0
cpu0_ITLB AVERAGE MISS LATENCY: 308.444 cycles
cpu0_L1I TOTAL     ACCESS:    1776431  HIT:    1775959  MISS:        472
cpu0_L1I LOAD      ACCESS:    1776431  HIT:    1775959  MISS:        472
cpu0_L1I RFO       ACCESS:          0  HIT:          0  MISS:          0
cpu0_L1I PREFETCH  ACCESS:          0  HIT:          0  MISS:          0
cpu0_L1I WRITEBACK ACCESS:          0  HIT:          0  MISS:          0
cpu0_L1I TRANSLATION ACCESS:          0  HIT:          0  MISS:          0
cpu0_L1I PREFETCH  REQUESTED:          0  ISSUED:          0  USEFUL:          0  USELESS:          0
cpu0_L1I AVERAGE MISS LATENCY: 345.729 cycles
cpu0_STLB TOTAL     ACCESS:      65737  HIT:      34113  MISS:      31624
cpu0_STLB LOAD      ACCESS:      51684  HIT:      28218  MISS:      23466
cpu0_STLB RFO       ACCESS:      14053  HIT:       5895  MISS:       8158
cpu0_STLB PREFETCH  ACCESS:          0  HIT:          0  MISS:          0
cpu0_STLB WRITEBACK ACCESS:          0  HIT:          0  MISS:          0
cpu0_STLB TRANSLATION ACCESS:          0  HIT:          0  MISS:          0
cpu0_STLB PREFETCH  REQUESTED:          0  ISSUED:          0  USEFUL:          0  USELESS:          0
cpu0_STLB AVERAGE MISS LATENCY: 157.719 cycles
cpu0_L1D TOTAL     ACCESS:   24573010  HIT:   21162817  MISS:    3410193
cpu0_L1D LOAD      ACCESS:   16416972  HIT:   13799786  MISS:    2617186
cpu0_L1D RFO       ACCESS:    8126720  HIT:    7337351  MISS:     789369
cpu0_L1D PREFETCH  ACCESS:          0  HIT:          0  MISS:          0
cpu0_L1D WRITEBACK ACCESS:          0  HIT:          0  MISS:          0
cpu0_L1D TRANSLATION ACCESS:      29318  HIT:      25680  MISS:       3638
cpu0_L1D PREFETCH  REQUESTED:          0  ISSUED:          0  USEFUL:          0  USELESS:          0
cpu0_L1D AVERAGE MISS LATENCY: 476.501 cycles
cpu0_L2C TOTAL     ACCESS:    4455056  HIT:    1718406  MISS:    2736650
cpu0_L2C LOAD      ACCESS:    2617605  HIT:     507702  MISS:    2109903
cpu0_L2C RFO       ACCESS:     789277  HIT:     162799  MISS:     626478
cpu0_L2C PREFETCH  ACCESS:          0  HIT:          0  MISS:          0
cpu0_L2C WRITEBACK ACCESS:    1044536  HIT:    1044365  MISS:        171
cpu0_L2C TRANSLATION ACCESS:       3638  HIT:       3540  MISS:         98
cpu0_L2C PREFETCH  REQUESTED:          0  ISSUED:          0  USEFUL:          0  USELESS:          0
cpu0_L2C AVERAGE MISS LATENCY: 580.098 cycles
LLC TOTAL     ACCESS:    3497195  HIT:     793689  MISS:    2703506
LLC LOAD      ACCESS:    2109903  HIT:     493143  MISS:    1616760
LLC RFO       ACCESS:     626478  HIT:     106966  MISS:     519512
LLC PREFETCH  ACCESS:          0  HIT:          0  MISS:          0
LLC WRITEBACK ACCESS:     760716  HIT:     193546  MISS:     567170
LLC TRANSLATION ACCESS:         98  HIT:         34  MISS:         64
LLC PREFETCH  REQUESTED:          0  ISSUED:          0  USEFUL:          0  USELESS:          0
LLC AVERAGE MISS LATENCY: 565.922 cycles

DRAM Statistics
 CHANNEL 0
 RQ ROW_BUFFER_HIT:     216685  ROW_BUFFER_MISS:    1919239
 DBUS AVG_CONGESTED_CYCLE:    3.95963
 WQ ROW_BUFFER_HIT:      60696  ROW_BUFFER_MISS:     605706  FULL:      23066


CPU 0 Branch Prediction Accuracy: 96.8713% MPKI: 1.55303 Average ROB Occupancy at Mispredict: 298.604
Branch type MPKI
BRANCH_DIRECT_JUMP: 0.00018
BRANCH_INDIRECT: 0
BRANCH_CONDITIONAL: 1.55065
BRANCH_DIRECT_CALL: 0.00113
BRANCH_INDIRECT_CALL: 0
BRANCH_RETURN: 0.00107

