
*** ChampSim Multicore Out-of-Order Simulator ***

Warmup Instructions: 10000000
Simulation Instructions: 100000000
Number of CPUs: 1
Off-chip DRAM Size: 4 GiB Channels: 1 Width: 64-bit Data Rate: 3200 MT/s

VirtualMemory physical capacity: 8588881920 num_ppages: 2096895
VirtualMemory page size: 4096 log2_page_size: 12

CPU 0 runs /datasets/cs240c-wi22-a00-public/data/Assignment2/libquantum_964B.trace.xz
CPU 0 Bimodal branch predictor
Basic BTB sets: 1024 ways: 8 indirect buffer size: 4096 RAS size: 64
Initialize Hawkeye state
Initialize SRRIP state
Heartbeat CPU 0 instructions: 10000001 cycles: 2500058 heartbeat IPC: 3.99991 cumulative IPC: 3.99991 (Simulation time: 0 hr 0 min 16 sec) 

Warmup complete CPU 0 instructions: 10000001 cycles: 2500058 (Simulation time: 0 hr 0 min 16 sec) 

Heartbeat CPU 0 instructions: 20000002 cycles: 18434606 heartbeat IPC: 0.627567 cumulative IPC: 0.627567 (Simulation time: 0 hr 0 min 53 sec) 
Heartbeat CPU 0 instructions: 30000004 cycles: 42410113 heartbeat IPC: 0.417092 cumulative IPC: 0.501127 (Simulation time: 0 hr 2 min 17 sec) 
Heartbeat CPU 0 instructions: 40000001 cycles: 64904740 heartbeat IPC: 0.44455 cumulative IPC: 0.480733 (Simulation time: 0 hr 3 min 52 sec) 
Heartbeat CPU 0 instructions: 50000003 cycles: 71037463 heartbeat IPC: 1.6306 cumulative IPC: 0.583623 (Simulation time: 0 hr 4 min 26 sec) 
Heartbeat CPU 0 instructions: 60000004 cycles: 81748467 heartbeat IPC: 0.933619 cumulative IPC: 0.630928 (Simulation time: 0 hr 5 min 0 sec) 
Heartbeat CPU 0 instructions: 70000003 cycles: 97439927 heartbeat IPC: 0.637289 cumulative IPC: 0.631979 (Simulation time: 0 hr 5 min 37 sec) 
Heartbeat CPU 0 instructions: 80000002 cycles: 124848811 heartbeat IPC: 0.364845 cumulative IPC: 0.572135 (Simulation time: 0 hr 7 min 18 sec) 
Heartbeat CPU 0 instructions: 90000001 cycles: 142225706 heartbeat IPC: 0.575477 cumulative IPC: 0.572551 (Simulation time: 0 hr 8 min 32 sec) 
Heartbeat CPU 0 instructions: 100000001 cycles: 147138802 heartbeat IPC: 2.03538 cumulative IPC: 0.62224 (Simulation time: 0 hr 9 min 1 sec) 
Heartbeat CPU 0 instructions: 110000003 cycles: 172178857 heartbeat IPC: 0.39936 cumulative IPC: 0.589349 (Simulation time: 0 hr 10 min 46 sec) 
Finished CPU 0 instructions: 100000002 cycles: 169678799 cumulative IPC: 0.589349 (Simulation time: 0 hr 10 min 46 sec) 

ChampSim completed all CPUs

Region of Interest Statistics

CPU 0 cumulative IPC: 0.589349 instructions: 100000002 cycles: 169678799
cpu0_DTLB TOTAL     ACCESS:    9111834  HIT:    9058836  MISS:      52998
cpu0_DTLB LOAD      ACCESS:    6236007  HIT:    6204816  MISS:      31191
cpu0_DTLB RFO       ACCESS:    2875827  HIT:    2854020  MISS:      21807
cpu0_DTLB PREFETCH  ACCESS:          0  HIT:          0  MISS:          0
cpu0_DTLB WRITEBACK ACCESS:          0  HIT:          0  MISS:          0
cpu0_DTLB TRANSLATION ACCESS:          0  HIT:          0  MISS:          0
cpu0_DTLB PREFETCH  REQUESTED:          0  ISSUED:          0  USEFUL:          0  USELESS:          0
cpu0_DTLB AVERAGE MISS LATENCY: 39.2659 cycles
cpu0_ITLB TOTAL     ACCESS:    1925705  HIT:    1925704  MISS:          1
cpu0_ITLB LOAD      ACCESS:    1925705  HIT:    1925704  MISS:          1
cpu0_ITLB RFO       ACCESS:          0  HIT:          0  MISS:          0
cpu0_ITLB PREFETCH  ACCESS:          0  HIT:          0  MISS:          0
cpu0_ITLB WRITEBACK ACCESS:          0  HIT:          0  MISS:          0
cpu0_ITLB TRANSLATION ACCESS:          0  HIT:          0  MISS:          0
cpu0_ITLB PREFETCH  REQUESTED:          0  ISSUED:          0  USEFUL:          0  USELESS:          0
cpu0_ITLB AVERAGE MISS LATENCY: 217 cycles
cpu0_L1I TOTAL     ACCESS:         11  HIT:          7  MISS:          4
cpu0_L1I LOAD      ACCESS:         11  HIT:          7  MISS:          4
cpu0_L1I RFO       ACCESS:          0  HIT:          0  MISS:          0
cpu0_L1I PREFETCH  ACCESS:          0  HIT:          0  MISS:          0
cpu0_L1I WRITEBACK ACCESS:          0  HIT:          0  MISS:          0
cpu0_L1I TRANSLATION ACCESS:          0  HIT:          0  MISS:          0
cpu0_L1I PREFETCH  REQUESTED:          0  ISSUED:          0  USEFUL:          0  USELESS:          0
cpu0_L1I AVERAGE MISS LATENCY: 261.25 cycles
cpu0_STLB TOTAL     ACCESS:      52999  HIT:          0  MISS:      52999
cpu0_STLB LOAD      ACCESS:      31192  HIT:          0  MISS:      31192
cpu0_STLB RFO       ACCESS:      21807  HIT:          0  MISS:      21807
cpu0_STLB PREFETCH  ACCESS:          0  HIT:          0  MISS:          0
cpu0_STLB WRITEBACK ACCESS:          0  HIT:          0  MISS:          0
cpu0_STLB TRANSLATION ACCESS:          0  HIT:          0  MISS:          0
cpu0_STLB PREFETCH  REQUESTED:          0  ISSUED:          0  USEFUL:          0  USELESS:          0
cpu0_STLB AVERAGE MISS LATENCY: 30.2692 cycles
cpu0_L1D TOTAL     ACCESS:    9384171  HIT:    5993731  MISS:    3390440
cpu0_L1D LOAD      ACCESS:    3615441  HIT:     225062  MISS:    3390379
cpu0_L1D RFO       ACCESS:    5715731  HIT:    5715707  MISS:         24
cpu0_L1D PREFETCH  ACCESS:          0  HIT:          0  MISS:          0
cpu0_L1D WRITEBACK ACCESS:          0  HIT:          0  MISS:          0
cpu0_L1D TRANSLATION ACCESS:      52999  HIT:      52962  MISS:         37
cpu0_L1D PREFETCH  REQUESTED:          0  ISSUED:          0  USEFUL:          0  USELESS:          0
cpu0_L1D AVERAGE MISS LATENCY: 427.354 cycles
cpu0_L2C TOTAL     ACCESS:    4919978  HIT:    1529534  MISS:    3390444
cpu0_L2C LOAD      ACCESS:    3390383  HIT:          0  MISS:    3390383
cpu0_L2C RFO       ACCESS:         24  HIT:          0  MISS:         24
cpu0_L2C PREFETCH  ACCESS:          0  HIT:          0  MISS:          0
cpu0_L2C WRITEBACK ACCESS:    1529534  HIT:    1529534  MISS:          0
cpu0_L2C TRANSLATION ACCESS:         37  HIT:          0  MISS:         37
cpu0_L2C PREFETCH  REQUESTED:          0  ISSUED:          0  USEFUL:          0  USELESS:          0
cpu0_L2C AVERAGE MISS LATENCY: 416.352 cycles
LLC TOTAL     ACCESS:    4913667  HIT:     245986  MISS:    4667681
LLC LOAD      ACCESS:    3390383  HIT:     132817  MISS:    3257566
LLC RFO       ACCESS:         24  HIT:         20  MISS:          4
LLC PREFETCH  ACCESS:          0  HIT:          0  MISS:          0
LLC WRITEBACK ACCESS:    1523223  HIT:     113145  MISS:    1410078
LLC TRANSLATION ACCESS:         37  HIT:          4  MISS:         33
LLC PREFETCH  REQUESTED:          0  ISSUED:          0  USEFUL:          0  USELESS:          0
LLC AVERAGE MISS LATENCY: 287.165 cycles

DRAM Statistics
 CHANNEL 0
 RQ ROW_BUFFER_HIT:    1781482  ROW_BUFFER_MISS:    1476114
 DBUS AVG_CONGESTED_CYCLE:     3.8987
 WQ ROW_BUFFER_HIT:     252920  ROW_BUFFER_MISS:    1223450  FULL:     210009


CPU 0 Branch Prediction Accuracy: 98.7463% MPKI: 2.70066 Average ROB Occupancy at Mispredict: 44.7792
Branch type MPKI
BRANCH_DIRECT_JUMP: 1e-05
BRANCH_INDIRECT: 0
BRANCH_CONDITIONAL: 2.70053
BRANCH_DIRECT_CALL: 6e-05
BRANCH_INDIRECT_CALL: 0
BRANCH_RETURN: 6e-05

