
*** ChampSim Multicore Out-of-Order Simulator ***

Warmup Instructions: 10000000
Simulation Instructions: 100000000
Number of CPUs: 1
Off-chip DRAM Size: 4 GiB Channels: 1 Width: 64-bit Data Rate: 3200 MT/s

VirtualMemory physical capacity: 8588881920 num_ppages: 2096895
VirtualMemory page size: 4096 log2_page_size: 12

CPU 0 runs /datasets/cs240c-wi22-a00-public/data/Assignment2/libquantum_1735B.trace.xz
CPU 0 Bimodal branch predictor
Basic BTB sets: 1024 ways: 8 indirect buffer size: 4096 RAS size: 64
Initialize Hawkeye state
Initialize SRRIP state
Heartbeat CPU 0 instructions: 10000002 cycles: 2500058 heartbeat IPC: 3.99991 cumulative IPC: 3.99991 (Simulation time: 0 hr 0 min 17 sec) 

Warmup complete CPU 0 instructions: 10000002 cycles: 2500058 (Simulation time: 0 hr 0 min 17 sec) 

Heartbeat CPU 0 instructions: 20000003 cycles: 36737922 heartbeat IPC: 0.292074 cumulative IPC: 0.292074 (Simulation time: 0 hr 1 min 6 sec) 
Heartbeat CPU 0 instructions: 30000001 cycles: 70907656 heartbeat IPC: 0.292657 cumulative IPC: 0.292365 (Simulation time: 0 hr 1 min 55 sec) 
Heartbeat CPU 0 instructions: 40000003 cycles: 110096979 heartbeat IPC: 0.255172 cumulative IPC: 0.278818 (Simulation time: 0 hr 2 min 47 sec) 
Heartbeat CPU 0 instructions: 50000002 cycles: 148526775 heartbeat IPC: 0.260215 cumulative IPC: 0.273922 (Simulation time: 0 hr 3 min 39 sec) 
Heartbeat CPU 0 instructions: 60000001 cycles: 153600661 heartbeat IPC: 1.97088 cumulative IPC: 0.330905 (Simulation time: 0 hr 4 min 9 sec) 
Heartbeat CPU 0 instructions: 70000002 cycles: 158860796 heartbeat IPC: 1.90109 cumulative IPC: 0.383728 (Simulation time: 0 hr 4 min 39 sec) 
Heartbeat CPU 0 instructions: 80000000 cycles: 197879889 heartbeat IPC: 0.256285 cumulative IPC: 0.358276 (Simulation time: 0 hr 5 min 30 sec) 
Heartbeat CPU 0 instructions: 90000000 cycles: 237869224 heartbeat IPC: 0.250067 cumulative IPC: 0.339892 (Simulation time: 0 hr 6 min 22 sec) 
Heartbeat CPU 0 instructions: 100000000 cycles: 296532715 heartbeat IPC: 0.170464 cumulative IPC: 0.306088 (Simulation time: 0 hr 7 min 28 sec) 
Heartbeat CPU 0 instructions: 110000003 cycles: 335529081 heartbeat IPC: 0.256434 cumulative IPC: 0.300274 (Simulation time: 0 hr 8 min 19 sec) 
Finished CPU 0 instructions: 100000001 cycles: 333029023 cumulative IPC: 0.300274 (Simulation time: 0 hr 8 min 19 sec) 

ChampSim completed all CPUs

Region of Interest Statistics

CPU 0 cumulative IPC: 0.300274 instructions: 100000001 cycles: 333029023
cpu0_DTLB TOTAL     ACCESS:    9973508  HIT:    9929905  MISS:      43603
cpu0_DTLB LOAD      ACCESS:    8340418  HIT:    8296820  MISS:      43598
cpu0_DTLB RFO       ACCESS:    1633090  HIT:    1633085  MISS:          5
cpu0_DTLB PREFETCH  ACCESS:          0  HIT:          0  MISS:          0
cpu0_DTLB WRITEBACK ACCESS:          0  HIT:          0  MISS:          0
cpu0_DTLB TRANSLATION ACCESS:          0  HIT:          0  MISS:          0
cpu0_DTLB PREFETCH  REQUESTED:          0  ISSUED:          0  USEFUL:          0  USELESS:          0
cpu0_DTLB AVERAGE MISS LATENCY: 35.7539 cycles
cpu0_ITLB TOTAL     ACCESS:    4579370  HIT:    4579370  MISS:          0
cpu0_ITLB LOAD      ACCESS:    4579370  HIT:    4579370  MISS:          0
cpu0_ITLB RFO       ACCESS:          0  HIT:          0  MISS:          0
cpu0_ITLB PREFETCH  ACCESS:          0  HIT:          0  MISS:          0
cpu0_ITLB WRITEBACK ACCESS:          0  HIT:          0  MISS:          0
cpu0_ITLB TRANSLATION ACCESS:          0  HIT:          0  MISS:          0
cpu0_ITLB PREFETCH  REQUESTED:          0  ISSUED:          0  USEFUL:          0  USELESS:          0
cpu0_ITLB AVERAGE MISS LATENCY: -nan cycles
cpu0_L1I TOTAL     ACCESS:         20  HIT:         11  MISS:          9
cpu0_L1I LOAD      ACCESS:         20  HIT:         11  MISS:          9
cpu0_L1I RFO       ACCESS:          0  HIT:          0  MISS:          0
cpu0_L1I PREFETCH  ACCESS:          0  HIT:          0  MISS:          0
cpu0_L1I WRITEBACK ACCESS:          0  HIT:          0  MISS:          0
cpu0_L1I TRANSLATION ACCESS:          0  HIT:          0  MISS:          0
cpu0_L1I PREFETCH  REQUESTED:          0  ISSUED:          0  USEFUL:          0  USELESS:          0
cpu0_L1I AVERAGE MISS LATENCY: 195.222 cycles
cpu0_STLB TOTAL     ACCESS:      43603  HIT:          0  MISS:      43603
cpu0_STLB LOAD      ACCESS:      43598  HIT:          0  MISS:      43598
cpu0_STLB RFO       ACCESS:          5  HIT:          0  MISS:          5
cpu0_STLB PREFETCH  ACCESS:          0  HIT:          0  MISS:          0
cpu0_STLB WRITEBACK ACCESS:          0  HIT:          0  MISS:          0
cpu0_STLB TRANSLATION ACCESS:          0  HIT:          0  MISS:          0
cpu0_STLB PREFETCH  REQUESTED:          0  ISSUED:          0  USEFUL:          0  USELESS:          0
cpu0_STLB AVERAGE MISS LATENCY: 26.7539 cycles
cpu0_L1D TOTAL     ACCESS:    6546160  HIT:    3756727  MISS:    2789433
cpu0_L1D LOAD      ACCESS:    4614052  HIT:    1824669  MISS:    2789383
cpu0_L1D RFO       ACCESS:    1888505  HIT:    1888485  MISS:         20
cpu0_L1D PREFETCH  ACCESS:          0  HIT:          0  MISS:          0
cpu0_L1D WRITEBACK ACCESS:          0  HIT:          0  MISS:          0
cpu0_L1D TRANSLATION ACCESS:      43603  HIT:      43573  MISS:         30
cpu0_L1D PREFETCH  REQUESTED:          0  ISSUED:          0  USEFUL:          0  USELESS:          0
cpu0_L1D AVERAGE MISS LATENCY: 166.157 cycles
cpu0_L2C TOTAL     ACCESS:    3804021  HIT:    1014579  MISS:    2789442
cpu0_L2C LOAD      ACCESS:    2789392  HIT:          0  MISS:    2789392
cpu0_L2C RFO       ACCESS:         20  HIT:          0  MISS:         20
cpu0_L2C PREFETCH  ACCESS:          0  HIT:          0  MISS:          0
cpu0_L2C WRITEBACK ACCESS:    1014579  HIT:    1014579  MISS:          0
cpu0_L2C TRANSLATION ACCESS:         30  HIT:          0  MISS:         30
cpu0_L2C PREFETCH  REQUESTED:          0  ISSUED:          0  USEFUL:          0  USELESS:          0
cpu0_L2C AVERAGE MISS LATENCY: 155.153 cycles
LLC TOTAL     ACCESS:    3798498  HIT:     116073  MISS:    3682425
LLC LOAD      ACCESS:    2789392  HIT:      86752  MISS:    2702640
LLC RFO       ACCESS:         20  HIT:          6  MISS:         14
LLC PREFETCH  ACCESS:          0  HIT:          0  MISS:          0
LLC WRITEBACK ACCESS:    1009056  HIT:      29303  MISS:     979753
LLC TRANSLATION ACCESS:         30  HIT:         12  MISS:         18
LLC PREFETCH  REQUESTED:          0  ISSUED:          0  USEFUL:          0  USELESS:          0
LLC AVERAGE MISS LATENCY: 101.621 cycles

DRAM Statistics
 CHANNEL 0
 RQ ROW_BUFFER_HIT:    1361124  ROW_BUFFER_MISS:    1341526
 DBUS AVG_CONGESTED_CYCLE:    3.74189
 WQ ROW_BUFFER_HIT:     326965  ROW_BUFFER_MISS:     673638  FULL:      12031


CPU 0 Branch Prediction Accuracy: 89.0086% MPKI: 24.5272 Average ROB Occupancy at Mispredict: 3.91514
Branch type MPKI
BRANCH_DIRECT_JUMP: 2e-05
BRANCH_INDIRECT: 0
BRANCH_CONDITIONAL: 24.527
BRANCH_DIRECT_CALL: 8e-05
BRANCH_INDIRECT_CALL: 0
BRANCH_RETURN: 8e-05

