
*** ChampSim Multicore Out-of-Order Simulator ***

Warmup Instructions: 10000000
Simulation Instructions: 100000000
Number of CPUs: 1
Off-chip DRAM Size: 4 GiB Channels: 1 Width: 64-bit Data Rate: 3200 MT/s

VirtualMemory physical capacity: 8588881920 num_ppages: 2096895
VirtualMemory page size: 4096 log2_page_size: 12

CPU 0 runs /datasets/cs240c-wi22-a00-public/data/Assignment2/mcf_250B.trace.xz
CPU 0 Bimodal branch predictor
Basic BTB sets: 1024 ways: 8 indirect buffer size: 4096 RAS size: 64
Initialize Hawkeye state
Initialize SRRIP state
Heartbeat CPU 0 instructions: 10000004 cycles: 3834272 heartbeat IPC: 2.60806 cumulative IPC: 2.60806 (Simulation time: 0 hr 0 min 35 sec) 

Warmup complete CPU 0 instructions: 10000004 cycles: 3834272 (Simulation time: 0 hr 0 min 35 sec) 

Heartbeat CPU 0 instructions: 20000000 cycles: 147616482 heartbeat IPC: 0.0695496 cumulative IPC: 0.0695496 (Simulation time: 0 hr 3 min 25 sec) 
Heartbeat CPU 0 instructions: 30000000 cycles: 285583405 heartbeat IPC: 0.0724811 cumulative IPC: 0.0709851 (Simulation time: 0 hr 6 min 6 sec) 
Heartbeat CPU 0 instructions: 40000000 cycles: 432640281 heartbeat IPC: 0.0680009 cumulative IPC: 0.0699617 (Simulation time: 0 hr 8 min 56 sec) 
Heartbeat CPU 0 instructions: 50000000 cycles: 573611766 heartbeat IPC: 0.0709363 cumulative IPC: 0.0702028 (Simulation time: 0 hr 11 min 45 sec) 
Heartbeat CPU 0 instructions: 60000000 cycles: 714234850 heartbeat IPC: 0.0711121 cumulative IPC: 0.0703828 (Simulation time: 0 hr 14 min 34 sec) 
Heartbeat CPU 0 instructions: 70000000 cycles: 847649097 heartbeat IPC: 0.0749545 cumulative IPC: 0.0711056 (Simulation time: 0 hr 17 min 17 sec) 
Heartbeat CPU 0 instructions: 80000000 cycles: 992737154 heartbeat IPC: 0.0689237 cumulative IPC: 0.0707855 (Simulation time: 0 hr 20 min 13 sec) 
Heartbeat CPU 0 instructions: 90000000 cycles: 1115577786 heartbeat IPC: 0.0814063 cumulative IPC: 0.071959 (Simulation time: 0 hr 22 min 46 sec) 
Heartbeat CPU 0 instructions: 100000000 cycles: 1253511083 heartbeat IPC: 0.0724988 cumulative IPC: 0.0720186 (Simulation time: 0 hr 25 min 35 sec) 
Heartbeat CPU 0 instructions: 110000000 cycles: 1396578383 heartbeat IPC: 0.0698972 cumulative IPC: 0.0718007 (Simulation time: 0 hr 28 min 27 sec) 
Finished CPU 0 instructions: 100000000 cycles: 1392744122 cumulative IPC: 0.0718007 (Simulation time: 0 hr 28 min 27 sec) 

ChampSim completed all CPUs

Region of Interest Statistics

CPU 0 cumulative IPC: 0.0718007 instructions: 100000000 cycles: 1392744122
cpu0_DTLB TOTAL     ACCESS:   20765757  HIT:    2975447  MISS:   17790310
cpu0_DTLB LOAD      ACCESS:   20270694  HIT:    2536277  MISS:   17734417
cpu0_DTLB RFO       ACCESS:     495063  HIT:     439170  MISS:      55893
cpu0_DTLB PREFETCH  ACCESS:          0  HIT:          0  MISS:          0
cpu0_DTLB WRITEBACK ACCESS:          0  HIT:          0  MISS:          0
cpu0_DTLB TRANSLATION ACCESS:          0  HIT:          0  MISS:          0
cpu0_DTLB PREFETCH  REQUESTED:          0  ISSUED:          0  USEFUL:          0  USELESS:          0
cpu0_DTLB AVERAGE MISS LATENCY: 11.3609 cycles
cpu0_ITLB TOTAL     ACCESS:   11315299  HIT:   11315299  MISS:          0
cpu0_ITLB LOAD      ACCESS:   11315299  HIT:   11315299  MISS:          0
cpu0_ITLB RFO       ACCESS:          0  HIT:          0  MISS:          0
cpu0_ITLB PREFETCH  ACCESS:          0  HIT:          0  MISS:          0
cpu0_ITLB WRITEBACK ACCESS:          0  HIT:          0  MISS:          0
cpu0_ITLB TRANSLATION ACCESS:          0  HIT:          0  MISS:          0
cpu0_ITLB PREFETCH  REQUESTED:          0  ISSUED:          0  USEFUL:          0  USELESS:          0
cpu0_ITLB AVERAGE MISS LATENCY: -nan cycles
cpu0_L1I TOTAL     ACCESS:          4  HIT:          4  MISS:          0
cpu0_L1I LOAD      ACCESS:          4  HIT:          4  MISS:          0
cpu0_L1I RFO       ACCESS:          0  HIT:          0  MISS:          0
cpu0_L1I PREFETCH  ACCESS:          0  HIT:          0  MISS:          0
cpu0_L1I WRITEBACK ACCESS:          0  HIT:          0  MISS:          0
cpu0_L1I TRANSLATION ACCESS:          0  HIT:          0  MISS:          0
cpu0_L1I PREFETCH  REQUESTED:          0  ISSUED:          0  USEFUL:          0  USELESS:          0
cpu0_L1I AVERAGE MISS LATENCY: -nan cycles
cpu0_STLB TOTAL     ACCESS:   17790310  HIT:   17413169  MISS:     377141
cpu0_STLB LOAD      ACCESS:   17734417  HIT:   17359413  MISS:     375004
cpu0_STLB RFO       ACCESS:      55893  HIT:      53756  MISS:       2137
cpu0_STLB PREFETCH  ACCESS:          0  HIT:          0  MISS:          0
cpu0_STLB WRITEBACK ACCESS:          0  HIT:          0  MISS:          0
cpu0_STLB TRANSLATION ACCESS:          0  HIT:          0  MISS:          0
cpu0_STLB PREFETCH  REQUESTED:          0  ISSUED:          0  USEFUL:          0  USELESS:          0
cpu0_STLB AVERAGE MISS LATENCY: 111.341 cycles
cpu0_L1D TOTAL     ACCESS:   21383870  HIT:    3439974  MISS:   17943896
cpu0_L1D LOAD      ACCESS:   20343153  HIT:    2559185  MISS:   17783968
cpu0_L1D RFO       ACCESS:     664707  HIT:     633047  MISS:      31660
cpu0_L1D PREFETCH  ACCESS:          0  HIT:          0  MISS:          0
cpu0_L1D WRITEBACK ACCESS:          0  HIT:          0  MISS:          0
cpu0_L1D TRANSLATION ACCESS:     376010  HIT:     247742  MISS:     128268
cpu0_L1D PREFETCH  REQUESTED:          0  ISSUED:          0  USEFUL:          0  USELESS:          0
cpu0_L1D AVERAGE MISS LATENCY: 229.063 cycles
cpu0_L2C TOTAL     ACCESS:   18302581  HIT:    5792326  MISS:   12510255
cpu0_L2C LOAD      ACCESS:   17783940  HIT:    5386584  MISS:   12397356
cpu0_L2C RFO       ACCESS:      31659  HIT:       9144  MISS:      22515
cpu0_L2C PREFETCH  ACCESS:          0  HIT:          0  MISS:          0
cpu0_L2C WRITEBACK ACCESS:     358714  HIT:     358712  MISS:          2
cpu0_L2C TRANSLATION ACCESS:     128268  HIT:      37886  MISS:      90382
cpu0_L2C PREFETCH  REQUESTED:          0  ISSUED:          0  USEFUL:          0  USELESS:          0
cpu0_L2C AVERAGE MISS LATENCY: 312.764 cycles
LLC TOTAL     ACCESS:   12800265  HIT:    5846152  MISS:    6954113
LLC LOAD      ACCESS:   12397356  HIT:    5614676  MISS:    6782680
LLC RFO       ACCESS:      22515  HIT:      11369  MISS:      11146
LLC PREFETCH  ACCESS:          0  HIT:          0  MISS:          0
LLC WRITEBACK ACCESS:     290012  HIT:     180164  MISS:     109848
LLC TRANSLATION ACCESS:      90382  HIT:      39943  MISS:      50439
LLC PREFETCH  REQUESTED:          0  ISSUED:          0  USEFUL:          0  USELESS:          0
LLC AVERAGE MISS LATENCY: 524.876 cycles

DRAM Statistics
 CHANNEL 0
 RQ ROW_BUFFER_HIT:      23129  ROW_BUFFER_MISS:    6821015
 DBUS AVG_CONGESTED_CYCLE:    3.95955
 WQ ROW_BUFFER_HIT:      10903  ROW_BUFFER_MISS:     176650  FULL:          0


CPU 0 Branch Prediction Accuracy: 91.6559% MPKI: 25.5287 Average ROB Occupancy at Mispredict: 24.4784
Branch type MPKI
BRANCH_DIRECT_JUMP: 2e-05
BRANCH_INDIRECT: 0
BRANCH_CONDITIONAL: 25.5287
BRANCH_DIRECT_CALL: 0
BRANCH_INDIRECT_CALL: 0
BRANCH_RETURN: 0

