
*** ChampSim Multicore Out-of-Order Simulator ***

Warmup Instructions: 10000000
Simulation Instructions: 100000000
Number of CPUs: 1
Off-chip DRAM Size: 4 GiB Channels: 1 Width: 64-bit Data Rate: 3200 MT/s

VirtualMemory physical capacity: 8588881920 num_ppages: 2096895
VirtualMemory page size: 4096 log2_page_size: 12

CPU 0 runs /datasets/cs240c-wi22-a00-public/data/Assignment2/milc_409B.trace.xz
CPU 0 Bimodal branch predictor
Basic BTB sets: 1024 ways: 8 indirect buffer size: 4096 RAS size: 64
Initialize Hawkeye state
Initialize SRRIP state
Heartbeat CPU 0 instructions: 10000000 cycles: 3019991 heartbeat IPC: 3.31127 cumulative IPC: 3.31127 (Simulation time: 0 hr 0 min 28 sec) 

Warmup complete CPU 0 instructions: 10000004 cycles: 3019992 (Simulation time: 0 hr 0 min 28 sec) 

Heartbeat CPU 0 instructions: 20000002 cycles: 19563908 heartbeat IPC: 0.604452 cumulative IPC: 0.604452 (Simulation time: 0 hr 1 min 37 sec) 
Heartbeat CPU 0 instructions: 30000001 cycles: 35971119 heartbeat IPC: 0.609488 cumulative IPC: 0.606959 (Simulation time: 0 hr 2 min 45 sec) 
Heartbeat CPU 0 instructions: 40000004 cycles: 52338823 heartbeat IPC: 0.610959 cumulative IPC: 0.608287 (Simulation time: 0 hr 3 min 53 sec) 
Heartbeat CPU 0 instructions: 50000000 cycles: 68719468 heartbeat IPC: 0.610476 cumulative IPC: 0.608833 (Simulation time: 0 hr 5 min 1 sec) 
Heartbeat CPU 0 instructions: 60000004 cycles: 90546670 heartbeat IPC: 0.458144 cumulative IPC: 0.571254 (Simulation time: 0 hr 6 min 37 sec) 
Heartbeat CPU 0 instructions: 70000003 cycles: 106294179 heartbeat IPC: 0.635021 cumulative IPC: 0.580978 (Simulation time: 0 hr 7 min 42 sec) 
Heartbeat CPU 0 instructions: 80000002 cycles: 122364299 heartbeat IPC: 0.622273 cumulative IPC: 0.586538 (Simulation time: 0 hr 8 min 47 sec) 
Heartbeat CPU 0 instructions: 90000001 cycles: 138385272 heartbeat IPC: 0.624182 cumulative IPC: 0.590993 (Simulation time: 0 hr 9 min 52 sec) 
Heartbeat CPU 0 instructions: 100000001 cycles: 154393407 heartbeat IPC: 0.624682 cumulative IPC: 0.594556 (Simulation time: 0 hr 10 min 58 sec) 
Heartbeat CPU 0 instructions: 110000003 cycles: 174774990 heartbeat IPC: 0.490639 cumulative IPC: 0.582225 (Simulation time: 0 hr 13 min 2 sec) 
Finished CPU 0 instructions: 100000004 cycles: 171754999 cumulative IPC: 0.582225 (Simulation time: 0 hr 13 min 2 sec) 

ChampSim completed all CPUs

Region of Interest Statistics

CPU 0 cumulative IPC: 0.582225 instructions: 100000004 cycles: 171754999
cpu0_DTLB TOTAL     ACCESS:   14828851  HIT:   14653685  MISS:     175166
cpu0_DTLB LOAD      ACCESS:    7380328  HIT:    7207303  MISS:     173025
cpu0_DTLB RFO       ACCESS:    7448523  HIT:    7446382  MISS:       2141
cpu0_DTLB PREFETCH  ACCESS:          0  HIT:          0  MISS:          0
cpu0_DTLB WRITEBACK ACCESS:          0  HIT:          0  MISS:          0
cpu0_DTLB TRANSLATION ACCESS:          0  HIT:          0  MISS:          0
cpu0_DTLB PREFETCH  REQUESTED:          0  ISSUED:          0  USEFUL:          0  USELESS:          0
cpu0_DTLB AVERAGE MISS LATENCY: 105.452 cycles
cpu0_ITLB TOTAL     ACCESS:    2820877  HIT:    2820873  MISS:          4
cpu0_ITLB LOAD      ACCESS:    2820877  HIT:    2820873  MISS:          4
cpu0_ITLB RFO       ACCESS:          0  HIT:          0  MISS:          0
cpu0_ITLB PREFETCH  ACCESS:          0  HIT:          0  MISS:          0
cpu0_ITLB WRITEBACK ACCESS:          0  HIT:          0  MISS:          0
cpu0_ITLB TRANSLATION ACCESS:          0  HIT:          0  MISS:          0
cpu0_ITLB PREFETCH  REQUESTED:          0  ISSUED:          0  USEFUL:          0  USELESS:          0
cpu0_ITLB AVERAGE MISS LATENCY: 225 cycles
cpu0_L1I TOTAL     ACCESS:    7050401  HIT:    7050350  MISS:         51
cpu0_L1I LOAD      ACCESS:    7050401  HIT:    7050350  MISS:         51
cpu0_L1I RFO       ACCESS:          0  HIT:          0  MISS:          0
cpu0_L1I PREFETCH  ACCESS:          0  HIT:          0  MISS:          0
cpu0_L1I WRITEBACK ACCESS:          0  HIT:          0  MISS:          0
cpu0_L1I TRANSLATION ACCESS:          0  HIT:          0  MISS:          0
cpu0_L1I PREFETCH  REQUESTED:          0  ISSUED:          0  USEFUL:          0  USELESS:          0
cpu0_L1I AVERAGE MISS LATENCY: 194.686 cycles
cpu0_STLB TOTAL     ACCESS:     175170  HIT:          0  MISS:     175170
cpu0_STLB LOAD      ACCESS:     173029  HIT:          0  MISS:     173029
cpu0_STLB RFO       ACCESS:       2141  HIT:          0  MISS:       2141
cpu0_STLB PREFETCH  ACCESS:          0  HIT:          0  MISS:          0
cpu0_STLB WRITEBACK ACCESS:          0  HIT:          0  MISS:          0
cpu0_STLB TRANSLATION ACCESS:          0  HIT:          0  MISS:          0
cpu0_STLB PREFETCH  REQUESTED:          0  ISSUED:          0  USEFUL:          0  USELESS:          0
cpu0_STLB AVERAGE MISS LATENCY: 96.4544 cycles
cpu0_L1D TOTAL     ACCESS:   28484493  HIT:   26667005  MISS:    1817488
cpu0_L1D LOAD      ACCESS:    6445132  HIT:    4764542  MISS:    1680590
cpu0_L1D RFO       ACCESS:   21864194  HIT:   21727347  MISS:     136847
cpu0_L1D PREFETCH  ACCESS:          0  HIT:          0  MISS:          0
cpu0_L1D WRITEBACK ACCESS:          0  HIT:          0  MISS:          0
cpu0_L1D TRANSLATION ACCESS:     175167  HIT:     175116  MISS:         51
cpu0_L1D PREFETCH  REQUESTED:          0  ISSUED:          0  USEFUL:          0  USELESS:          0
cpu0_L1D AVERAGE MISS LATENCY: 383.226 cycles
cpu0_L2C TOTAL     ACCESS:    2676936  HIT:     859383  MISS:    1817553
cpu0_L2C LOAD      ACCESS:    1680641  HIT:          0  MISS:    1680641
cpu0_L2C RFO       ACCESS:     136847  HIT:          0  MISS:     136847
cpu0_L2C PREFETCH  ACCESS:          0  HIT:          0  MISS:          0
cpu0_L2C WRITEBACK ACCESS:     859397  HIT:     859383  MISS:         14
cpu0_L2C TRANSLATION ACCESS:         51  HIT:          0  MISS:         51
cpu0_L2C PREFETCH  REQUESTED:          0  ISSUED:          0  USEFUL:          0  USELESS:          0
cpu0_L2C AVERAGE MISS LATENCY: 372.17 cycles
LLC TOTAL     ACCESS:    2673600  HIT:      62291  MISS:    2611309
LLC LOAD      ACCESS:    1680641  HIT:      14310  MISS:    1666331
LLC RFO       ACCESS:     136847  HIT:       9722  MISS:     127125
LLC PREFETCH  ACCESS:          0  HIT:          0  MISS:          0
LLC WRITEBACK ACCESS:     856061  HIT:      38255  MISS:     817806
LLC TRANSLATION ACCESS:         51  HIT:          4  MISS:         47
LLC PREFETCH  REQUESTED:          0  ISSUED:          0  USEFUL:          0  USELESS:          0
LLC AVERAGE MISS LATENCY: 244.425 cycles

DRAM Statistics
 CHANNEL 0
 RQ ROW_BUFFER_HIT:     244161  ROW_BUFFER_MISS:    1549300
 DBUS AVG_CONGESTED_CYCLE:    3.97014
 WQ ROW_BUFFER_HIT:      48518  ROW_BUFFER_MISS:     788454  FULL:          0


CPU 0 Branch Prediction Accuracy: 99.9987% MPKI: 0.00058 Average ROB Occupancy at Mispredict: 57.0517
Branch type MPKI
BRANCH_DIRECT_JUMP: 0.0001
BRANCH_INDIRECT: 0
BRANCH_CONDITIONAL: 0.00033
BRANCH_DIRECT_CALL: 8e-05
BRANCH_INDIRECT_CALL: 0
BRANCH_RETURN: 7e-05

