
*** ChampSim Multicore Out-of-Order Simulator ***

Warmup Instructions: 10000000
Simulation Instructions: 100000000
Number of CPUs: 1
Off-chip DRAM Size: 4 GiB Channels: 1 Width: 64-bit Data Rate: 3200 MT/s

VirtualMemory physical capacity: 8588881920 num_ppages: 2096895
VirtualMemory page size: 4096 log2_page_size: 12

CPU 0 runs /datasets/cs240c-wi22-a00-public/data/Assignment2/omnetpp_340B.trace.xz
CPU 0 Bimodal branch predictor
Basic BTB sets: 1024 ways: 8 indirect buffer size: 4096 RAS size: 64
Initialize Hawkeye state
Initialize SRRIP state
Heartbeat CPU 0 instructions: 10000002 cycles: 2500207 heartbeat IPC: 3.99967 cumulative IPC: 3.99967 (Simulation time: 0 hr 0 min 23 sec) 

Warmup complete CPU 0 instructions: 10000002 cycles: 2500207 (Simulation time: 0 hr 0 min 23 sec) 

Heartbeat CPU 0 instructions: 20000000 cycles: 27760393 heartbeat IPC: 0.39588 cumulative IPC: 0.39588 (Simulation time: 0 hr 1 min 17 sec) 
Heartbeat CPU 0 instructions: 30000002 cycles: 52628005 heartbeat IPC: 0.40213 cumulative IPC: 0.39898 (Simulation time: 0 hr 2 min 10 sec) 
Heartbeat CPU 0 instructions: 40000000 cycles: 77385932 heartbeat IPC: 0.403911 cumulative IPC: 0.40061 (Simulation time: 0 hr 3 min 3 sec) 
Heartbeat CPU 0 instructions: 50000002 cycles: 102100689 heartbeat IPC: 0.404617 cumulative IPC: 0.401604 (Simulation time: 0 hr 3 min 53 sec) 
Heartbeat CPU 0 instructions: 60000001 cycles: 128411936 heartbeat IPC: 0.380066 cumulative IPC: 0.397104 (Simulation time: 0 hr 4 min 50 sec) 
Heartbeat CPU 0 instructions: 70000003 cycles: 154178508 heartbeat IPC: 0.3881 cumulative IPC: 0.395574 (Simulation time: 0 hr 5 min 41 sec) 
Heartbeat CPU 0 instructions: 80000003 cycles: 180453995 heartbeat IPC: 0.380583 cumulative IPC: 0.393361 (Simulation time: 0 hr 6 min 37 sec) 
Heartbeat CPU 0 instructions: 90000000 cycles: 206232369 heartbeat IPC: 0.387922 cumulative IPC: 0.392672 (Simulation time: 0 hr 7 min 29 sec) 
Heartbeat CPU 0 instructions: 100000000 cycles: 232497117 heartbeat IPC: 0.380738 cumulative IPC: 0.39131 (Simulation time: 0 hr 8 min 26 sec) 
Heartbeat CPU 0 instructions: 110000000 cycles: 257520559 heartbeat IPC: 0.399625 cumulative IPC: 0.392126 (Simulation time: 0 hr 9 min 21 sec) 
Finished CPU 0 instructions: 100000000 cycles: 255020354 cumulative IPC: 0.392126 (Simulation time: 0 hr 9 min 21 sec) 

ChampSim completed all CPUs

Region of Interest Statistics

CPU 0 cumulative IPC: 0.392126 instructions: 100000000 cycles: 255020354
cpu0_DTLB TOTAL     ACCESS:   23849215  HIT:   21952034  MISS:    1897181
cpu0_DTLB LOAD      ACCESS:   13880737  HIT:   12299574  MISS:    1581163
cpu0_DTLB RFO       ACCESS:    9968478  HIT:    9652460  MISS:     316018
cpu0_DTLB PREFETCH  ACCESS:          0  HIT:          0  MISS:          0
cpu0_DTLB WRITEBACK ACCESS:          0  HIT:          0  MISS:          0
cpu0_DTLB TRANSLATION ACCESS:          0  HIT:          0  MISS:          0
cpu0_DTLB PREFETCH  REQUESTED:          0  ISSUED:          0  USEFUL:          0  USELESS:          0
cpu0_DTLB AVERAGE MISS LATENCY: 13.1516 cycles
cpu0_ITLB TOTAL     ACCESS:   11128424  HIT:   11093057  MISS:      35367
cpu0_ITLB LOAD      ACCESS:   11128424  HIT:   11093057  MISS:      35367
cpu0_ITLB RFO       ACCESS:          0  HIT:          0  MISS:          0
cpu0_ITLB PREFETCH  ACCESS:          0  HIT:          0  MISS:          0
cpu0_ITLB WRITEBACK ACCESS:          0  HIT:          0  MISS:          0
cpu0_ITLB TRANSLATION ACCESS:          0  HIT:          0  MISS:          0
cpu0_ITLB PREFETCH  REQUESTED:          0  ISSUED:          0  USEFUL:          0  USELESS:          0
cpu0_ITLB AVERAGE MISS LATENCY: 9.27492 cycles
cpu0_L1I TOTAL     ACCESS:    8348000  HIT:    8341650  MISS:       6350
cpu0_L1I LOAD      ACCESS:    8348000  HIT:    8341650  MISS:       6350
cpu0_L1I RFO       ACCESS:          0  HIT:          0  MISS:          0
cpu0_L1I PREFETCH  ACCESS:          0  HIT:          0  MISS:          0
cpu0_L1I WRITEBACK ACCESS:          0  HIT:          0  MISS:          0
cpu0_L1I TRANSLATION ACCESS:          0  HIT:          0  MISS:          0
cpu0_L1I PREFETCH  REQUESTED:          0  ISSUED:          0  USEFUL:          0  USELESS:          0
cpu0_L1I AVERAGE MISS LATENCY: 58.7655 cycles
cpu0_STLB TOTAL     ACCESS:    1932548  HIT:    1457353  MISS:     475195
cpu0_STLB LOAD      ACCESS:    1616530  HIT:    1262643  MISS:     353887
cpu0_STLB RFO       ACCESS:     316018  HIT:     194710  MISS:     121308
cpu0_STLB PREFETCH  ACCESS:          0  HIT:          0  MISS:          0
cpu0_STLB WRITEBACK ACCESS:          0  HIT:          0  MISS:          0
cpu0_STLB TRANSLATION ACCESS:          0  HIT:          0  MISS:          0
cpu0_STLB PREFETCH  REQUESTED:          0  ISSUED:          0  USEFUL:          0  USELESS:          0
cpu0_STLB AVERAGE MISS LATENCY: 16.1247 cycles
cpu0_L1D TOTAL     ACCESS:   31454212  HIT:   28956307  MISS:    2497905
cpu0_L1D LOAD      ACCESS:   15710936  HIT:   13527779  MISS:    2183157
cpu0_L1D RFO       ACCESS:   15302860  HIT:   14992616  MISS:     310244
cpu0_L1D PREFETCH  ACCESS:          0  HIT:          0  MISS:          0
cpu0_L1D WRITEBACK ACCESS:          0  HIT:          0  MISS:          0
cpu0_L1D TRANSLATION ACCESS:     440416  HIT:     435912  MISS:       4504
cpu0_L1D PREFETCH  REQUESTED:          0  ISSUED:          0  USEFUL:          0  USELESS:          0
cpu0_L1D AVERAGE MISS LATENCY: 142.78 cycles
cpu0_L2C TOTAL     ACCESS:    3581335  HIT:    1431341  MISS:    2149994
cpu0_L2C LOAD      ACCESS:    2189470  HIT:     331022  MISS:    1858448
cpu0_L2C RFO       ACCESS:     310244  HIT:      22069  MISS:     288175
cpu0_L2C PREFETCH  ACCESS:          0  HIT:          0  MISS:          0
cpu0_L2C WRITEBACK ACCESS:    1077117  HIT:    1074845  MISS:       2272
cpu0_L2C TRANSLATION ACCESS:       4504  HIT:       3405  MISS:       1099
cpu0_L2C PREFETCH  REQUESTED:          0  ISSUED:          0  USEFUL:          0  USELESS:          0
cpu0_L2C AVERAGE MISS LATENCY: 153.087 cycles
LLC TOTAL     ACCESS:    3079041  HIT:    1104293  MISS:    1974748
LLC LOAD      ACCESS:    1858447  HIT:     445083  MISS:    1413364
LLC RFO       ACCESS:     288175  HIT:      68347  MISS:     219828
LLC PREFETCH  ACCESS:          0  HIT:          0  MISS:          0
LLC WRITEBACK ACCESS:     931320  HIT:     590086  MISS:     341234
LLC TRANSLATION ACCESS:       1099  HIT:        777  MISS:        322
LLC PREFETCH  REQUESTED:          0  ISSUED:          0  USEFUL:          0  USELESS:          0
LLC AVERAGE MISS LATENCY: 143.833 cycles

DRAM Statistics
 CHANNEL 0
 RQ ROW_BUFFER_HIT:      86816  ROW_BUFFER_MISS:    1546605
 DBUS AVG_CONGESTED_CYCLE:     3.9193
 WQ ROW_BUFFER_HIT:     172567  ROW_BUFFER_MISS:     525424  FULL:          0


CPU 0 Branch Prediction Accuracy: 94.4212% MPKI: 13.4017 Average ROB Occupancy at Mispredict: 52.1892
Branch type MPKI
BRANCH_DIRECT_JUMP: 0.00017
BRANCH_INDIRECT: 0.04543
BRANCH_CONDITIONAL: 13.2857
BRANCH_DIRECT_CALL: 8e-05
BRANCH_INDIRECT_CALL: 0.04734
BRANCH_RETURN: 0.02301

