
*** ChampSim Multicore Out-of-Order Simulator ***

Warmup Instructions: 10000000
Simulation Instructions: 100000000
Number of CPUs: 1
Off-chip DRAM Size: 4 GiB Channels: 1 Width: 64-bit Data Rate: 3200 MT/s

VirtualMemory physical capacity: 8588881920 num_ppages: 2096895
VirtualMemory page size: 4096 log2_page_size: 12

CPU 0 runs /datasets/cs240c-wi22-a00-public/data/Assignment2/sphinx3_2520B.trace.xz
CPU 0 Bimodal branch predictor
Basic BTB sets: 1024 ways: 8 indirect buffer size: 4096 RAS size: 64
Initialize Hawkeye state
Initialize SRRIP state
Heartbeat CPU 0 instructions: 10000000 cycles: 2589704 heartbeat IPC: 3.86145 cumulative IPC: 3.86145 (Simulation time: 0 hr 0 min 19 sec) 

Warmup complete CPU 0 instructions: 10000004 cycles: 2589705 (Simulation time: 0 hr 0 min 19 sec) 

Heartbeat CPU 0 instructions: 20000002 cycles: 8896672 heartbeat IPC: 1.58555 cumulative IPC: 1.58555 (Simulation time: 0 hr 0 min 49 sec) 
Heartbeat CPU 0 instructions: 30000000 cycles: 15084454 heartbeat IPC: 1.61609 cumulative IPC: 1.60067 (Simulation time: 0 hr 1 min 17 sec) 
Heartbeat CPU 0 instructions: 40000002 cycles: 20919186 heartbeat IPC: 1.71388 cumulative IPC: 1.63671 (Simulation time: 0 hr 1 min 46 sec) 
Heartbeat CPU 0 instructions: 50000002 cycles: 27032404 heartbeat IPC: 1.6358 cumulative IPC: 1.63648 (Simulation time: 0 hr 2 min 14 sec) 
Heartbeat CPU 0 instructions: 60000001 cycles: 32891242 heartbeat IPC: 1.70682 cumulative IPC: 1.65008 (Simulation time: 0 hr 2 min 42 sec) 
Heartbeat CPU 0 instructions: 70000004 cycles: 38566732 heartbeat IPC: 1.76196 cumulative IPC: 1.66773 (Simulation time: 0 hr 3 min 10 sec) 
Heartbeat CPU 0 instructions: 80000000 cycles: 44389415 heartbeat IPC: 1.71742 cumulative IPC: 1.67465 (Simulation time: 0 hr 3 min 39 sec) 
Heartbeat CPU 0 instructions: 90000003 cycles: 50054307 heartbeat IPC: 1.76526 cumulative IPC: 1.68547 (Simulation time: 0 hr 4 min 6 sec) 
Heartbeat CPU 0 instructions: 100000002 cycles: 55936863 heartbeat IPC: 1.69994 cumulative IPC: 1.68706 (Simulation time: 0 hr 4 min 34 sec) 
Heartbeat CPU 0 instructions: 110000003 cycles: 64296825 heartbeat IPC: 1.19618 cumulative IPC: 1.62056 (Simulation time: 0 hr 5 min 8 sec) 
Finished CPU 0 instructions: 100000004 cycles: 61707121 cumulative IPC: 1.62056 (Simulation time: 0 hr 5 min 8 sec) 

ChampSim completed all CPUs

Region of Interest Statistics

CPU 0 cumulative IPC: 1.62056 instructions: 100000004 cycles: 61707121
cpu0_DTLB TOTAL     ACCESS:   16019201  HIT:   15963361  MISS:      55840
cpu0_DTLB LOAD      ACCESS:   14982393  HIT:   14929888  MISS:      52505
cpu0_DTLB RFO       ACCESS:    1036808  HIT:    1033473  MISS:       3335
cpu0_DTLB PREFETCH  ACCESS:          0  HIT:          0  MISS:          0
cpu0_DTLB WRITEBACK ACCESS:          0  HIT:          0  MISS:          0
cpu0_DTLB TRANSLATION ACCESS:          0  HIT:          0  MISS:          0
cpu0_DTLB PREFETCH  REQUESTED:          0  ISSUED:          0  USEFUL:          0  USELESS:          0
cpu0_DTLB AVERAGE MISS LATENCY: 11.4327 cycles
cpu0_ITLB TOTAL     ACCESS:    9563750  HIT:    9563708  MISS:         42
cpu0_ITLB LOAD      ACCESS:    9563750  HIT:    9563708  MISS:         42
cpu0_ITLB RFO       ACCESS:          0  HIT:          0  MISS:          0
cpu0_ITLB PREFETCH  ACCESS:          0  HIT:          0  MISS:          0
cpu0_ITLB WRITEBACK ACCESS:          0  HIT:          0  MISS:          0
cpu0_ITLB TRANSLATION ACCESS:          0  HIT:          0  MISS:          0
cpu0_ITLB PREFETCH  REQUESTED:          0  ISSUED:          0  USEFUL:          0  USELESS:          0
cpu0_ITLB AVERAGE MISS LATENCY: 151.452 cycles
cpu0_L1I TOTAL     ACCESS:     267806  HIT:     266514  MISS:       1292
cpu0_L1I LOAD      ACCESS:     267806  HIT:     266514  MISS:       1292
cpu0_L1I RFO       ACCESS:          0  HIT:          0  MISS:          0
cpu0_L1I PREFETCH  ACCESS:          0  HIT:          0  MISS:          0
cpu0_L1I WRITEBACK ACCESS:          0  HIT:          0  MISS:          0
cpu0_L1I TRANSLATION ACCESS:          0  HIT:          0  MISS:          0
cpu0_L1I PREFETCH  REQUESTED:          0  ISSUED:          0  USEFUL:          0  USELESS:          0
cpu0_L1I AVERAGE MISS LATENCY: 152.06 cycles
cpu0_STLB TOTAL     ACCESS:      55882  HIT:      51075  MISS:       4807
cpu0_STLB LOAD      ACCESS:      52547  HIT:      47872  MISS:       4675
cpu0_STLB RFO       ACCESS:       3335  HIT:       3203  MISS:        132
cpu0_STLB PREFETCH  ACCESS:          0  HIT:          0  MISS:          0
cpu0_STLB WRITEBACK ACCESS:          0  HIT:          0  MISS:          0
cpu0_STLB TRANSLATION ACCESS:          0  HIT:          0  MISS:          0
cpu0_STLB PREFETCH  REQUESTED:          0  ISSUED:          0  USEFUL:          0  USELESS:          0
cpu0_STLB AVERAGE MISS LATENCY: 28.9831 cycles
cpu0_L1D TOTAL     ACCESS:   11616985  HIT:   10277586  MISS:    1339399
cpu0_L1D LOAD      ACCESS:   10263561  HIT:    9049811  MISS:    1213750
cpu0_L1D RFO       ACCESS:    1348895  HIT:    1223360  MISS:     125535
cpu0_L1D PREFETCH  ACCESS:          0  HIT:          0  MISS:          0
cpu0_L1D WRITEBACK ACCESS:          0  HIT:          0  MISS:          0
cpu0_L1D TRANSLATION ACCESS:       4529  HIT:       4415  MISS:        114
cpu0_L1D PREFETCH  REQUESTED:          0  ISSUED:          0  USEFUL:          0  USELESS:          0
cpu0_L1D AVERAGE MISS LATENCY: 73.1104 cycles
cpu0_L2C TOTAL     ACCESS:    1472903  HIT:     251126  MISS:    1221777
cpu0_L2C LOAD      ACCESS:    1215041  HIT:     113620  MISS:    1101421
cpu0_L2C RFO       ACCESS:     125535  HIT:       5426  MISS:     120109
cpu0_L2C PREFETCH  ACCESS:          0  HIT:          0  MISS:          0
cpu0_L2C WRITEBACK ACCESS:     132213  HIT:     132051  MISS:        162
cpu0_L2C TRANSLATION ACCESS:        114  HIT:         29  MISS:         85
cpu0_L2C PREFETCH  REQUESTED:          0  ISSUED:          0  USEFUL:          0  USELESS:          0
cpu0_L2C AVERAGE MISS LATENCY: 68.2173 cycles
LLC TOTAL     ACCESS:    1348269  HIT:    1006197  MISS:     342072
LLC LOAD      ACCESS:    1101421  HIT:     772851  MISS:     328570
LLC RFO       ACCESS:     120109  HIT:     109057  MISS:      11052
LLC PREFETCH  ACCESS:          0  HIT:          0  MISS:          0
LLC WRITEBACK ACCESS:     126654  HIT:     124262  MISS:       2392
LLC TRANSLATION ACCESS:         85  HIT:         27  MISS:         58
LLC PREFETCH  REQUESTED:          0  ISSUED:          0  USEFUL:          0  USELESS:          0
LLC AVERAGE MISS LATENCY: 168.648 cycles

DRAM Statistics
 CHANNEL 0
 RQ ROW_BUFFER_HIT:      80864  ROW_BUFFER_MISS:     258223
 DBUS AVG_CONGESTED_CYCLE:    3.84449
 WQ ROW_BUFFER_HIT:       5454  ROW_BUFFER_MISS:       6954  FULL:          0


CPU 0 Branch Prediction Accuracy: 93.1904% MPKI: 5.9173 Average ROB Occupancy at Mispredict: 191.326
Branch type MPKI
BRANCH_DIRECT_JUMP: 0.00106
BRANCH_INDIRECT: 0
BRANCH_CONDITIONAL: 5.91482
BRANCH_DIRECT_CALL: 0.00069
BRANCH_INDIRECT_CALL: 3e-05
BRANCH_RETURN: 0.0007

