
*** ChampSim Multicore Out-of-Order Simulator ***

Warmup Instructions: 10000000
Simulation Instructions: 100000000
Number of CPUs: 1
Off-chip DRAM Size: 4 GiB Channels: 1 Width: 64-bit Data Rate: 3200 MT/s

VirtualMemory physical capacity: 8588881920 num_ppages: 2096895
VirtualMemory page size: 4096 log2_page_size: 12

CPU 0 runs /datasets/cs240c-wi22-a00-public/data/Assignment2/wrf_1650B.trace.xz
CPU 0 Bimodal branch predictor
Basic BTB sets: 1024 ways: 8 indirect buffer size: 4096 RAS size: 64
Initialize Hawkeye state
Initialize SRRIP state
Heartbeat CPU 0 instructions: 10000001 cycles: 2500100 heartbeat IPC: 3.99984 cumulative IPC: 3.99984 (Simulation time: 0 hr 0 min 19 sec) 

Warmup complete CPU 0 instructions: 10000001 cycles: 2500100 (Simulation time: 0 hr 0 min 19 sec) 

Heartbeat CPU 0 instructions: 20000004 cycles: 12137577 heartbeat IPC: 1.03762 cumulative IPC: 1.03762 (Simulation time: 0 hr 1 min 1 sec) 
Heartbeat CPU 0 instructions: 30000000 cycles: 21774170 heartbeat IPC: 1.03771 cumulative IPC: 1.03766 (Simulation time: 0 hr 1 min 43 sec) 
Heartbeat CPU 0 instructions: 40000002 cycles: 31416863 heartbeat IPC: 1.03705 cumulative IPC: 1.03746 (Simulation time: 0 hr 2 min 25 sec) 
Heartbeat CPU 0 instructions: 50000000 cycles: 47724623 heartbeat IPC: 0.613205 cumulative IPC: 0.884476 (Simulation time: 0 hr 3 min 32 sec) 
Heartbeat CPU 0 instructions: 60000000 cycles: 60629373 heartbeat IPC: 0.774908 cumulative IPC: 0.860152 (Simulation time: 0 hr 4 min 43 sec) 
Heartbeat CPU 0 instructions: 70000002 cycles: 76426398 heartbeat IPC: 0.633031 cumulative IPC: 0.811619 (Simulation time: 0 hr 5 min 47 sec) 
Heartbeat CPU 0 instructions: 80000004 cycles: 92334127 heartbeat IPC: 0.628625 cumulative IPC: 0.779215 (Simulation time: 0 hr 7 min 47 sec) 
Heartbeat CPU 0 instructions: 90000002 cycles: 109682876 heartbeat IPC: 0.57641 cumulative IPC: 0.746389 (Simulation time: 0 hr 9 min 58 sec) 
Heartbeat CPU 0 instructions: 100000000 cycles: 129597524 heartbeat IPC: 0.502143 cumulative IPC: 0.708118 (Simulation time: 0 hr 12 min 13 sec) 
Heartbeat CPU 0 instructions: 110000004 cycles: 148142029 heartbeat IPC: 0.539244 cumulative IPC: 0.686615 (Simulation time: 0 hr 13 min 52 sec) 
Finished CPU 0 instructions: 100000003 cycles: 145641929 cumulative IPC: 0.686615 (Simulation time: 0 hr 13 min 52 sec) 

ChampSim completed all CPUs

Region of Interest Statistics

CPU 0 cumulative IPC: 0.686615 instructions: 100000003 cycles: 145641929
cpu0_DTLB TOTAL     ACCESS:   16087080  HIT:   16056311  MISS:      30769
cpu0_DTLB LOAD      ACCESS:   14668396  HIT:   14644371  MISS:      24025
cpu0_DTLB RFO       ACCESS:    1418684  HIT:    1411940  MISS:       6744
cpu0_DTLB PREFETCH  ACCESS:          0  HIT:          0  MISS:          0
cpu0_DTLB WRITEBACK ACCESS:          0  HIT:          0  MISS:          0
cpu0_DTLB TRANSLATION ACCESS:          0  HIT:          0  MISS:          0
cpu0_DTLB PREFETCH  REQUESTED:          0  ISSUED:          0  USEFUL:          0  USELESS:          0
cpu0_DTLB AVERAGE MISS LATENCY: 146.995 cycles
cpu0_ITLB TOTAL     ACCESS:    6816764  HIT:    6816737  MISS:         27
cpu0_ITLB LOAD      ACCESS:    6816764  HIT:    6816737  MISS:         27
cpu0_ITLB RFO       ACCESS:          0  HIT:          0  MISS:          0
cpu0_ITLB PREFETCH  ACCESS:          0  HIT:          0  MISS:          0
cpu0_ITLB WRITEBACK ACCESS:          0  HIT:          0  MISS:          0
cpu0_ITLB TRANSLATION ACCESS:          0  HIT:          0  MISS:          0
cpu0_ITLB PREFETCH  REQUESTED:          0  ISSUED:          0  USEFUL:          0  USELESS:          0
cpu0_ITLB AVERAGE MISS LATENCY: 240.519 cycles
cpu0_L1I TOTAL     ACCESS:    1672715  HIT:    1672171  MISS:        544
cpu0_L1I LOAD      ACCESS:    1672715  HIT:    1672171  MISS:        544
cpu0_L1I RFO       ACCESS:          0  HIT:          0  MISS:          0
cpu0_L1I PREFETCH  ACCESS:          0  HIT:          0  MISS:          0
cpu0_L1I WRITEBACK ACCESS:          0  HIT:          0  MISS:          0
cpu0_L1I TRANSLATION ACCESS:          0  HIT:          0  MISS:          0
cpu0_L1I PREFETCH  REQUESTED:          0  ISSUED:          0  USEFUL:          0  USELESS:          0
cpu0_L1I AVERAGE MISS LATENCY: 344.336 cycles
cpu0_STLB TOTAL     ACCESS:      30796  HIT:      16566  MISS:      14230
cpu0_STLB LOAD      ACCESS:      24052  HIT:      13012  MISS:      11040
cpu0_STLB RFO       ACCESS:       6744  HIT:       3554  MISS:       3190
cpu0_STLB PREFETCH  ACCESS:          0  HIT:          0  MISS:          0
cpu0_STLB WRITEBACK ACCESS:          0  HIT:          0  MISS:          0
cpu0_STLB TRANSLATION ACCESS:          0  HIT:          0  MISS:          0
cpu0_STLB PREFETCH  REQUESTED:          0  ISSUED:          0  USEFUL:          0  USELESS:          0
cpu0_STLB AVERAGE MISS LATENCY: 298.821 cycles
cpu0_L1D TOTAL     ACCESS:   14558097  HIT:   13525927  MISS:    1032170
cpu0_L1D LOAD      ACCESS:   12270385  HIT:   11452902  MISS:     817483
cpu0_L1D RFO       ACCESS:    2274846  HIT:    2060733  MISS:     214113
cpu0_L1D PREFETCH  ACCESS:          0  HIT:          0  MISS:          0
cpu0_L1D WRITEBACK ACCESS:          0  HIT:          0  MISS:          0
cpu0_L1D TRANSLATION ACCESS:      12866  HIT:      12292  MISS:        574
cpu0_L1D PREFETCH  REQUESTED:          0  ISSUED:          0  USEFUL:          0  USELESS:          0
cpu0_L1D AVERAGE MISS LATENCY: 237.121 cycles
cpu0_L2C TOTAL     ACCESS:    1279173  HIT:     490332  MISS:     788841
cpu0_L2C LOAD      ACCESS:     818013  HIT:     229610  MISS:     588403
cpu0_L2C RFO       ACCESS:     214109  HIT:      13800  MISS:     200309
cpu0_L2C PREFETCH  ACCESS:          0  HIT:          0  MISS:          0
cpu0_L2C WRITEBACK ACCESS:     246477  HIT:     246392  MISS:         85
cpu0_L2C TRANSLATION ACCESS:        574  HIT:        530  MISS:         44
cpu0_L2C PREFETCH  REQUESTED:          0  ISSUED:          0  USEFUL:          0  USELESS:          0
cpu0_L2C AVERAGE MISS LATENCY: 296.092 cycles
LLC TOTAL     ACCESS:    1004610  HIT:     112489  MISS:     892121
LLC LOAD      ACCESS:     588403  HIT:      18238  MISS:     570165
LLC RFO       ACCESS:     200309  HIT:         68  MISS:     200241
LLC PREFETCH  ACCESS:          0  HIT:          0  MISS:          0
LLC WRITEBACK ACCESS:     215854  HIT:      94167  MISS:     121687
LLC TRANSLATION ACCESS:         44  HIT:         16  MISS:         28
LLC PREFETCH  REQUESTED:          0  ISSUED:          0  USEFUL:          0  USELESS:          0
LLC AVERAGE MISS LATENCY: 243.247 cycles

DRAM Statistics
 CHANNEL 0
 RQ ROW_BUFFER_HIT:      26403  ROW_BUFFER_MISS:     744019
 DBUS AVG_CONGESTED_CYCLE:    3.93302
 WQ ROW_BUFFER_HIT:      31705  ROW_BUFFER_MISS:     178529  FULL:          0


CPU 0 Branch Prediction Accuracy: 83.2596% MPKI: 18.9931 Average ROB Occupancy at Mispredict: 253.722
Branch type MPKI
BRANCH_DIRECT_JUMP: 0.0005
BRANCH_INDIRECT: 0
BRANCH_CONDITIONAL: 18.9921
BRANCH_DIRECT_CALL: 0.00023
BRANCH_INDIRECT_CALL: 0
BRANCH_RETURN: 0.00022

