
*** ChampSim Multicore Out-of-Order Simulator ***

Warmup Instructions: 10000000
Simulation Instructions: 100000000
Number of CPUs: 1
Off-chip DRAM Size: 4 GiB Channels: 1 Width: 64-bit Data Rate: 3200 MT/s

VirtualMemory physical capacity: 8588881920 num_ppages: 2096895
VirtualMemory page size: 4096 log2_page_size: 12

CPU 0 runs /datasets/cs240c-wi22-a00-public/data/Assignment2/xalancbmk_99B.trace.xz
CPU 0 Bimodal branch predictor
Basic BTB sets: 1024 ways: 8 indirect buffer size: 4096 RAS size: 64
Initialize Hawkeye state
Initialize SRRIP state
Heartbeat CPU 0 instructions: 10000001 cycles: 3058767 heartbeat IPC: 3.26929 cumulative IPC: 3.26929 (Simulation time: 0 hr 0 min 28 sec) 

Warmup complete CPU 0 instructions: 10000001 cycles: 3058767 (Simulation time: 0 hr 0 min 28 sec) 

Heartbeat CPU 0 instructions: 20000003 cycles: 37995138 heartbeat IPC: 0.286235 cumulative IPC: 0.286235 (Simulation time: 0 hr 1 min 15 sec) 
Heartbeat CPU 0 instructions: 30000000 cycles: 76610058 heartbeat IPC: 0.258967 cumulative IPC: 0.271919 (Simulation time: 0 hr 2 min 7 sec) 
Heartbeat CPU 0 instructions: 40000000 cycles: 113643829 heartbeat IPC: 0.270024 cumulative IPC: 0.271284 (Simulation time: 0 hr 2 min 56 sec) 
Heartbeat CPU 0 instructions: 50000001 cycles: 152485268 heartbeat IPC: 0.257457 cumulative IPC: 0.26769 (Simulation time: 0 hr 4 min 15 sec) 
Heartbeat CPU 0 instructions: 60000002 cycles: 189601819 heartbeat IPC: 0.269422 cumulative IPC: 0.268035 (Simulation time: 0 hr 5 min 49 sec) 
Heartbeat CPU 0 instructions: 70000002 cycles: 226609022 heartbeat IPC: 0.270218 cumulative IPC: 0.268396 (Simulation time: 0 hr 7 min 26 sec) 
Heartbeat CPU 0 instructions: 80000001 cycles: 264843037 heartbeat IPC: 0.261547 cumulative IPC: 0.267396 (Simulation time: 0 hr 8 min 54 sec) 
Heartbeat CPU 0 instructions: 90000000 cycles: 302104045 heartbeat IPC: 0.268377 cumulative IPC: 0.267518 (Simulation time: 0 hr 10 min 13 sec) 
Heartbeat CPU 0 instructions: 100000000 cycles: 339452944 heartbeat IPC: 0.267745 cumulative IPC: 0.267543 (Simulation time: 0 hr 11 min 17 sec) 
Heartbeat CPU 0 instructions: 110000001 cycles: 373905449 heartbeat IPC: 0.290255 cumulative IPC: 0.269653 (Simulation time: 0 hr 12 min 9 sec) 
Finished CPU 0 instructions: 100000000 cycles: 370846682 cumulative IPC: 0.269653 (Simulation time: 0 hr 12 min 9 sec) 

ChampSim completed all CPUs

Region of Interest Statistics

CPU 0 cumulative IPC: 0.269653 instructions: 100000000 cycles: 370846682
cpu0_DTLB TOTAL     ACCESS:   22805571  HIT:   22244923  MISS:     560648
cpu0_DTLB LOAD      ACCESS:   21426446  HIT:   20875405  MISS:     551041
cpu0_DTLB RFO       ACCESS:    1379125  HIT:    1369518  MISS:       9607
cpu0_DTLB PREFETCH  ACCESS:          0  HIT:          0  MISS:          0
cpu0_DTLB WRITEBACK ACCESS:          0  HIT:          0  MISS:          0
cpu0_DTLB TRANSLATION ACCESS:          0  HIT:          0  MISS:          0
cpu0_DTLB PREFETCH  REQUESTED:          0  ISSUED:          0  USEFUL:          0  USELESS:          0
cpu0_DTLB AVERAGE MISS LATENCY: 37.6133 cycles
cpu0_ITLB TOTAL     ACCESS:   13331771  HIT:   13304413  MISS:      27358
cpu0_ITLB LOAD      ACCESS:   13331771  HIT:   13304413  MISS:      27358
cpu0_ITLB RFO       ACCESS:          0  HIT:          0  MISS:          0
cpu0_ITLB PREFETCH  ACCESS:          0  HIT:          0  MISS:          0
cpu0_ITLB WRITEBACK ACCESS:          0  HIT:          0  MISS:          0
cpu0_ITLB TRANSLATION ACCESS:          0  HIT:          0  MISS:          0
cpu0_ITLB PREFETCH  REQUESTED:          0  ISSUED:          0  USEFUL:          0  USELESS:          0
cpu0_ITLB AVERAGE MISS LATENCY: 10.9264 cycles
cpu0_L1I TOTAL     ACCESS:     670762  HIT:     563699  MISS:     107063
cpu0_L1I LOAD      ACCESS:     670762  HIT:     563699  MISS:     107063
cpu0_L1I RFO       ACCESS:          0  HIT:          0  MISS:          0
cpu0_L1I PREFETCH  ACCESS:          0  HIT:          0  MISS:          0
cpu0_L1I WRITEBACK ACCESS:          0  HIT:          0  MISS:          0
cpu0_L1I TRANSLATION ACCESS:          0  HIT:          0  MISS:          0
cpu0_L1I PREFETCH  REQUESTED:          0  ISSUED:          0  USEFUL:          0  USELESS:          0
cpu0_L1I AVERAGE MISS LATENCY: 27.3197 cycles
cpu0_STLB TOTAL     ACCESS:     588006  HIT:     172993  MISS:     415013
cpu0_STLB LOAD      ACCESS:     578399  HIT:     164972  MISS:     413427
cpu0_STLB RFO       ACCESS:       9607  HIT:       8021  MISS:       1586
cpu0_STLB PREFETCH  ACCESS:          0  HIT:          0  MISS:          0
cpu0_STLB WRITEBACK ACCESS:          0  HIT:          0  MISS:          0
cpu0_STLB TRANSLATION ACCESS:          0  HIT:          0  MISS:          0
cpu0_STLB PREFETCH  REQUESTED:          0  ISSUED:          0  USEFUL:          0  USELESS:          0
cpu0_STLB AVERAGE MISS LATENCY: 38.7058 cycles
cpu0_L1D TOTAL     ACCESS:   17693719  HIT:   14548575  MISS:    3145144
cpu0_L1D LOAD      ACCESS:   15453280  HIT:   12326039  MISS:    3127241
cpu0_L1D RFO       ACCESS:    1870290  HIT:    1858338  MISS:      11952
cpu0_L1D PREFETCH  ACCESS:          0  HIT:          0  MISS:          0
cpu0_L1D WRITEBACK ACCESS:          0  HIT:          0  MISS:          0
cpu0_L1D TRANSLATION ACCESS:     370149  HIT:     364198  MISS:       5951
cpu0_L1D PREFETCH  REQUESTED:          0  ISSUED:          0  USEFUL:          0  USELESS:          0
cpu0_L1D AVERAGE MISS LATENCY: 156.734 cycles
cpu0_L2C TOTAL     ACCESS:    3280013  HIT:     136204  MISS:    3143809
cpu0_L2C LOAD      ACCESS:    3234294  HIT:     101487  MISS:    3132807
cpu0_L2C RFO       ACCESS:      11948  HIT:       2661  MISS:       9287
cpu0_L2C PREFETCH  ACCESS:          0  HIT:          0  MISS:          0
cpu0_L2C WRITEBACK ACCESS:      27820  HIT:      27432  MISS:        388
cpu0_L2C TRANSLATION ACCESS:       5951  HIT:       4624  MISS:       1327
cpu0_L2C PREFETCH  REQUESTED:          0  ISSUED:          0  USEFUL:          0  USELESS:          0
cpu0_L2C AVERAGE MISS LATENCY: 146.197 cycles
LLC TOTAL     ACCESS:    3163829  HIT:     619453  MISS:    2544376
LLC LOAD      ACCESS:    3132807  HIT:     597183  MISS:    2535624
LLC RFO       ACCESS:       9286  HIT:       4714  MISS:       4572
LLC PREFETCH  ACCESS:          0  HIT:          0  MISS:          0
LLC WRITEBACK ACCESS:      20409  HIT:      16923  MISS:       3486
LLC TRANSLATION ACCESS:       1327  HIT:        633  MISS:        694
LLC PREFETCH  REQUESTED:          0  ISSUED:          0  USEFUL:          0  USELESS:          0
LLC AVERAGE MISS LATENCY: 154.695 cycles

DRAM Statistics
 CHANNEL 0
 RQ ROW_BUFFER_HIT:     673061  ROW_BUFFER_MISS:    1867829
 DBUS AVG_CONGESTED_CYCLE:    3.91597
 WQ ROW_BUFFER_HIT:       2946  ROW_BUFFER_MISS:       2932  FULL:          0


CPU 0 Branch Prediction Accuracy: 90.7444% MPKI: 27.9345 Average ROB Occupancy at Mispredict: 19.3335
Branch type MPKI
BRANCH_DIRECT_JUMP: 0.00034
BRANCH_INDIRECT: 0.0087
BRANCH_CONDITIONAL: 27.8577
BRANCH_DIRECT_CALL: 0.00024
BRANCH_INDIRECT_CALL: 0.02508
BRANCH_RETURN: 0.04245

