
*** ChampSim Multicore Out-of-Order Simulator ***

Warmup Instructions: 10000000
Simulation Instructions: 100000000
Number of CPUs: 1
Off-chip DRAM Size: 4 GiB Channels: 1 Width: 64-bit Data Rate: 3200 MT/s

VirtualMemory physical capacity: 8588881920 num_ppages: 2096895
VirtualMemory page size: 4096 log2_page_size: 12

CPU 0 runs /datasets/cs240c-wi22-a00-public/data/Assignment2/astar_23B.trace.xz
CPU 0 Bimodal branch predictor
Basic BTB sets: 1024 ways: 8 indirect buffer size: 4096 RAS size: 64
5th iteration
No hysteresis, common rrpv
Initialize Hawkeye state
Initialize SRRIP state
Heartbeat CPU 0 instructions: 10000002 cycles: 2670768 heartbeat IPC: 3.74424 cumulative IPC: 3.74424 (Simulation time: 0 hr 0 min 46 sec) 

Warmup complete CPU 0 instructions: 10000002 cycles: 2670768 (Simulation time: 0 hr 0 min 46 sec) 

Heartbeat CPU 0 instructions: 20000003 cycles: 25622073 heartbeat IPC: 0.435705 cumulative IPC: 0.435705 (Simulation time: 0 hr 1 min 48 sec) 
Heartbeat CPU 0 instructions: 30000000 cycles: 49947299 heartbeat IPC: 0.411096 cumulative IPC: 0.423043 (Simulation time: 0 hr 2 min 52 sec) 
Heartbeat CPU 0 instructions: 40000002 cycles: 74477739 heartbeat IPC: 0.407657 cumulative IPC: 0.417787 (Simulation time: 0 hr 3 min 56 sec) 
Heartbeat CPU 0 instructions: 50000002 cycles: 98661548 heartbeat IPC: 0.4135 cumulative IPC: 0.416707 (Simulation time: 0 hr 4 min 55 sec) 
Heartbeat CPU 0 instructions: 60000000 cycles: 123394007 heartbeat IPC: 0.404327 cumulative IPC: 0.41417 (Simulation time: 0 hr 5 min 51 sec) 
Heartbeat CPU 0 instructions: 70000000 cycles: 146570044 heartbeat IPC: 0.43148 cumulative IPC: 0.416958 (Simulation time: 0 hr 6 min 33 sec) 
Heartbeat CPU 0 instructions: 80000000 cycles: 170444384 heartbeat IPC: 0.41886 cumulative IPC: 0.417229 (Simulation time: 0 hr 7 min 14 sec) 
Heartbeat CPU 0 instructions: 90000004 cycles: 194827296 heartbeat IPC: 0.410123 cumulative IPC: 0.416327 (Simulation time: 0 hr 7 min 48 sec) 
Heartbeat CPU 0 instructions: 100000002 cycles: 218157016 heartbeat IPC: 0.428638 cumulative IPC: 0.41766 (Simulation time: 0 hr 8 min 20 sec) 
Heartbeat CPU 0 instructions: 110000003 cycles: 242155555 heartbeat IPC: 0.416692 cumulative IPC: 0.417563 (Simulation time: 0 hr 8 min 53 sec) 
Finished CPU 0 instructions: 100000001 cycles: 239484787 cumulative IPC: 0.417563 (Simulation time: 0 hr 8 min 53 sec) 

ChampSim completed all CPUs

Region of Interest Statistics

CPU 0 cumulative IPC: 0.417563 instructions: 100000001 cycles: 239484787
cpu0_DTLB TOTAL     ACCESS:   24054205  HIT:   21626359  MISS:    2427846
cpu0_DTLB LOAD      ACCESS:   21285535  HIT:   19103600  MISS:    2181935
cpu0_DTLB RFO       ACCESS:    2768670  HIT:    2522759  MISS:     245911
cpu0_DTLB PREFETCH  ACCESS:          0  HIT:          0  MISS:          0
cpu0_DTLB WRITEBACK ACCESS:          0  HIT:          0  MISS:          0
cpu0_DTLB TRANSLATION ACCESS:          0  HIT:          0  MISS:          0
cpu0_DTLB PREFETCH  REQUESTED:          0  ISSUED:          0  USEFUL:          0  USELESS:          0
cpu0_DTLB AVERAGE MISS LATENCY: 10.5703 cycles
cpu0_ITLB TOTAL     ACCESS:   12810446  HIT:   12810436  MISS:         10
cpu0_ITLB LOAD      ACCESS:   12810446  HIT:   12810436  MISS:         10
cpu0_ITLB RFO       ACCESS:          0  HIT:          0  MISS:          0
cpu0_ITLB PREFETCH  ACCESS:          0  HIT:          0  MISS:          0
cpu0_ITLB WRITEBACK ACCESS:          0  HIT:          0  MISS:          0
cpu0_ITLB TRANSLATION ACCESS:          0  HIT:          0  MISS:          0
cpu0_ITLB PREFETCH  REQUESTED:          0  ISSUED:          0  USEFUL:          0  USELESS:          0
cpu0_ITLB AVERAGE MISS LATENCY: 239.6 cycles
cpu0_L1I TOTAL     ACCESS:       4971  HIT:       4870  MISS:        101
cpu0_L1I LOAD      ACCESS:       4971  HIT:       4870  MISS:        101
cpu0_L1I RFO       ACCESS:          0  HIT:          0  MISS:          0
cpu0_L1I PREFETCH  ACCESS:          0  HIT:          0  MISS:          0
cpu0_L1I WRITEBACK ACCESS:          0  HIT:          0  MISS:          0
cpu0_L1I TRANSLATION ACCESS:          0  HIT:          0  MISS:          0
cpu0_L1I PREFETCH  REQUESTED:          0  ISSUED:          0  USEFUL:          0  USELESS:          0
cpu0_L1I AVERAGE MISS LATENCY: 214.941 cycles
cpu0_STLB TOTAL     ACCESS:    2427856  HIT:    2026646  MISS:     401210
cpu0_STLB LOAD      ACCESS:    2181945  HIT:    1847059  MISS:     334886
cpu0_STLB RFO       ACCESS:     245911  HIT:     179587  MISS:      66324
cpu0_STLB PREFETCH  ACCESS:          0  HIT:          0  MISS:          0
cpu0_STLB WRITEBACK ACCESS:          0  HIT:          0  MISS:          0
cpu0_STLB TRANSLATION ACCESS:          0  HIT:          0  MISS:          0
cpu0_STLB PREFETCH  REQUESTED:          0  ISSUED:          0  USEFUL:          0  USELESS:          0
cpu0_STLB AVERAGE MISS LATENCY: 9.44251 cycles
cpu0_L1D TOTAL     ACCESS:   26431675  HIT:   23507183  MISS:    2924492
cpu0_L1D LOAD      ACCESS:   21757756  HIT:   18872330  MISS:    2885426
cpu0_L1D RFO       ACCESS:    4287391  HIT:    4250308  MISS:      37083
cpu0_L1D PREFETCH  ACCESS:          0  HIT:          0  MISS:          0
cpu0_L1D WRITEBACK ACCESS:          0  HIT:          0  MISS:          0
cpu0_L1D TRANSLATION ACCESS:     386528  HIT:     384545  MISS:       1983
cpu0_L1D PREFETCH  REQUESTED:          0  ISSUED:          0  USEFUL:          0  USELESS:          0
cpu0_L1D AVERAGE MISS LATENCY: 33.3889 cycles
cpu0_L2C TOTAL     ACCESS:    3881066  HIT:    2756699  MISS:    1124367
cpu0_L2C LOAD      ACCESS:    2885456  HIT:    1767328  MISS:    1118128
cpu0_L2C RFO       ACCESS:      37083  HIT:      31088  MISS:       5995
cpu0_L2C PREFETCH  ACCESS:          0  HIT:          0  MISS:          0
cpu0_L2C WRITEBACK ACCESS:     956544  HIT:     956488  MISS:         56
cpu0_L2C TRANSLATION ACCESS:       1983  HIT:       1795  MISS:        188
cpu0_L2C PREFETCH  REQUESTED:          0  ISSUED:          0  USEFUL:          0  USELESS:          0
cpu0_L2C AVERAGE MISS LATENCY: 58.1989 cycles
LLC TOTAL     ACCESS:    1532664  HIT:    1256966  MISS:     275698
LLC LOAD      ACCESS:    1117972  HIT:     876953  MISS:     241019
LLC RFO       ACCESS:       5995  HIT:       5659  MISS:        336
LLC PREFETCH  ACCESS:          0  HIT:          0  MISS:          0
LLC WRITEBACK ACCESS:     408509  HIT:     374176  MISS:      34333
LLC TRANSLATION ACCESS:        188  HIT:        178  MISS:         10
LLC PREFETCH  REQUESTED:          0  ISSUED:          0  USEFUL:          0  USELESS:          0
LLC AVERAGE MISS LATENCY: 151.722 cycles

DRAM Statistics
 CHANNEL 0
 RQ ROW_BUFFER_HIT:        629  ROW_BUFFER_MISS:     240553
 DBUS AVG_CONGESTED_CYCLE:     3.5581
 WQ ROW_BUFFER_HIT:       6825  ROW_BUFFER_MISS:     129895  FULL:          0


CPU 0 Branch Prediction Accuracy: 69.3175% MPKI: 58.5794 Average ROB Occupancy at Mispredict: 5.13463
Branch type MPKI
BRANCH_DIRECT_JUMP: 0.00025
BRANCH_INDIRECT: 0
BRANCH_CONDITIONAL: 58.5789
BRANCH_DIRECT_CALL: 0.00016
BRANCH_INDIRECT_CALL: 0
BRANCH_RETURN: 0.00016

