
*** ChampSim Multicore Out-of-Order Simulator ***

Warmup Instructions: 10000000
Simulation Instructions: 100000000
Number of CPUs: 1
Off-chip DRAM Size: 4 GiB Channels: 1 Width: 64-bit Data Rate: 3200 MT/s

VirtualMemory physical capacity: 8588881920 num_ppages: 2096895
VirtualMemory page size: 4096 log2_page_size: 12

CPU 0 runs /datasets/cs240c-wi22-a00-public/data/Assignment2/GemsFDTD_716B.trace.xz
CPU 0 Bimodal branch predictor
Basic BTB sets: 1024 ways: 8 indirect buffer size: 4096 RAS size: 64
5th iteration
No hysteresis, common rrpv
Initialize Hawkeye state
Initialize SRRIP state
Heartbeat CPU 0 instructions: 10000004 cycles: 2536409 heartbeat IPC: 3.94258 cumulative IPC: 3.94258 (Simulation time: 0 hr 0 min 20 sec) 

Warmup complete CPU 0 instructions: 10000004 cycles: 2536409 (Simulation time: 0 hr 0 min 20 sec) 

Heartbeat CPU 0 instructions: 20000003 cycles: 24838413 heartbeat IPC: 0.44839 cumulative IPC: 0.44839 (Simulation time: 0 hr 1 min 53 sec) 
Heartbeat CPU 0 instructions: 30000002 cycles: 38571813 heartbeat IPC: 0.728152 cumulative IPC: 0.55501 (Simulation time: 0 hr 3 min 1 sec) 
Heartbeat CPU 0 instructions: 40000000 cycles: 49950157 heartbeat IPC: 0.878862 cumulative IPC: 0.632728 (Simulation time: 0 hr 4 min 2 sec) 
Heartbeat CPU 0 instructions: 50000002 cycles: 67777189 heartbeat IPC: 0.560946 cumulative IPC: 0.613113 (Simulation time: 0 hr 5 min 23 sec) 
Heartbeat CPU 0 instructions: 60000002 cycles: 83271821 heartbeat IPC: 0.645385 cumulative IPC: 0.619307 (Simulation time: 0 hr 6 min 35 sec) 
Heartbeat CPU 0 instructions: 70000001 cycles: 95336111 heartbeat IPC: 0.828892 cumulative IPC: 0.646554 (Simulation time: 0 hr 7 min 39 sec) 
Heartbeat CPU 0 instructions: 80000003 cycles: 109941508 heartbeat IPC: 0.684679 cumulative IPC: 0.651738 (Simulation time: 0 hr 8 min 50 sec) 
Heartbeat CPU 0 instructions: 90000001 cycles: 128040897 heartbeat IPC: 0.552505 cumulative IPC: 0.637427 (Simulation time: 0 hr 10 min 9 sec) 
Heartbeat CPU 0 instructions: 100000001 cycles: 140790527 heartbeat IPC: 0.784337 cumulative IPC: 0.650975 (Simulation time: 0 hr 11 min 13 sec) 
Heartbeat CPU 0 instructions: 110000004 cycles: 152207065 heartbeat IPC: 0.875923 cumulative IPC: 0.668134 (Simulation time: 0 hr 12 min 13 sec) 
Finished CPU 0 instructions: 100000000 cycles: 149670656 cumulative IPC: 0.668134 (Simulation time: 0 hr 12 min 13 sec) 

ChampSim completed all CPUs

Region of Interest Statistics

CPU 0 cumulative IPC: 0.668134 instructions: 100000000 cycles: 149670656
cpu0_DTLB TOTAL     ACCESS:   29892679  HIT:   26862785  MISS:    3029894
cpu0_DTLB LOAD      ACCESS:   20911642  HIT:   17882620  MISS:    3029022
cpu0_DTLB RFO       ACCESS:    8981037  HIT:    8980165  MISS:        872
cpu0_DTLB PREFETCH  ACCESS:          0  HIT:          0  MISS:          0
cpu0_DTLB WRITEBACK ACCESS:          0  HIT:          0  MISS:          0
cpu0_DTLB TRANSLATION ACCESS:          0  HIT:          0  MISS:          0
cpu0_DTLB PREFETCH  REQUESTED:          0  ISSUED:          0  USEFUL:          0  USELESS:          0
cpu0_DTLB AVERAGE MISS LATENCY: 13.8437 cycles
cpu0_ITLB TOTAL     ACCESS:    1848138  HIT:    1848136  MISS:          2
cpu0_ITLB LOAD      ACCESS:    1848138  HIT:    1848136  MISS:          2
cpu0_ITLB RFO       ACCESS:          0  HIT:          0  MISS:          0
cpu0_ITLB PREFETCH  ACCESS:          0  HIT:          0  MISS:          0
cpu0_ITLB WRITEBACK ACCESS:          0  HIT:          0  MISS:          0
cpu0_ITLB TRANSLATION ACCESS:          0  HIT:          0  MISS:          0
cpu0_ITLB PREFETCH  REQUESTED:          0  ISSUED:          0  USEFUL:          0  USELESS:          0
cpu0_ITLB AVERAGE MISS LATENCY: 464 cycles
cpu0_L1I TOTAL     ACCESS:    7856863  HIT:    7856741  MISS:        122
cpu0_L1I LOAD      ACCESS:    7856863  HIT:    7856741  MISS:        122
cpu0_L1I RFO       ACCESS:          0  HIT:          0  MISS:          0
cpu0_L1I PREFETCH  ACCESS:          0  HIT:          0  MISS:          0
cpu0_L1I WRITEBACK ACCESS:          0  HIT:          0  MISS:          0
cpu0_L1I TRANSLATION ACCESS:          0  HIT:          0  MISS:          0
cpu0_L1I PREFETCH  REQUESTED:          0  ISSUED:          0  USEFUL:          0  USELESS:          0
cpu0_L1I AVERAGE MISS LATENCY: 263.492 cycles
cpu0_STLB TOTAL     ACCESS:    3029897  HIT:    2757435  MISS:     272462
cpu0_STLB LOAD      ACCESS:    3029025  HIT:    2756563  MISS:     272462
cpu0_STLB RFO       ACCESS:        872  HIT:        872  MISS:          0
cpu0_STLB PREFETCH  ACCESS:          0  HIT:          0  MISS:          0
cpu0_STLB WRITEBACK ACCESS:          0  HIT:          0  MISS:          0
cpu0_STLB TRANSLATION ACCESS:          0  HIT:          0  MISS:          0
cpu0_STLB PREFETCH  REQUESTED:          0  ISSUED:          0  USEFUL:          0  USELESS:          0
cpu0_STLB AVERAGE MISS LATENCY: 51.4754 cycles
cpu0_L1D TOTAL     ACCESS:   34790568  HIT:   26547754  MISS:    8242814
cpu0_L1D LOAD      ACCESS:   22656399  HIT:   14437198  MISS:    8219201
cpu0_L1D RFO       ACCESS:   11867035  HIT:   11867029  MISS:          6
cpu0_L1D PREFETCH  ACCESS:          0  HIT:          0  MISS:          0
cpu0_L1D WRITEBACK ACCESS:          0  HIT:          0  MISS:          0
cpu0_L1D TRANSLATION ACCESS:     267134  HIT:     243527  MISS:      23607
cpu0_L1D PREFETCH  REQUESTED:          0  ISSUED:          0  USEFUL:          0  USELESS:          0
cpu0_L1D AVERAGE MISS LATENCY: 68.5584 cycles
cpu0_L2C TOTAL     ACCESS:    9425520  HIT:    7935053  MISS:    1490467
cpu0_L2C LOAD      ACCESS:    8219323  HIT:    6729492  MISS:    1489831
cpu0_L2C RFO       ACCESS:          6  HIT:          6  MISS:          0
cpu0_L2C PREFETCH  ACCESS:          0  HIT:          0  MISS:          0
cpu0_L2C WRITEBACK ACCESS:    1182584  HIT:    1182544  MISS:         40
cpu0_L2C TRANSLATION ACCESS:      23607  HIT:      23011  MISS:        596
cpu0_L2C PREFETCH  REQUESTED:          0  ISSUED:          0  USEFUL:          0  USELESS:          0
cpu0_L2C AVERAGE MISS LATENCY: 316.424 cycles
LLC TOTAL     ACCESS:    1524165  HIT:     103213  MISS:    1420952
LLC LOAD      ACCESS:    1489725  HIT:      69993  MISS:    1419732
LLC RFO       ACCESS:          0  HIT:          0  MISS:          0
LLC PREFETCH  ACCESS:          0  HIT:          0  MISS:          0
LLC WRITEBACK ACCESS:      33844  HIT:      32847  MISS:        997
LLC TRANSLATION ACCESS:        596  HIT:        373  MISS:        223
LLC PREFETCH  REQUESTED:          0  ISSUED:          0  USEFUL:          0  USELESS:          0
LLC AVERAGE MISS LATENCY: 309.878 cycles

DRAM Statistics
 CHANNEL 0
 RQ ROW_BUFFER_HIT:         78  ROW_BUFFER_MISS:    1419861
 DBUS AVG_CONGESTED_CYCLE:    3.95018
 WQ ROW_BUFFER_HIT:       1179  ROW_BUFFER_MISS:      11841  FULL:          0


CPU 0 Branch Prediction Accuracy: 98.9038% MPKI: 0.06477 Average ROB Occupancy at Mispredict: 248.579
Branch type MPKI
BRANCH_DIRECT_JUMP: 0
BRANCH_INDIRECT: 0
BRANCH_CONDITIONAL: 0.06477
BRANCH_DIRECT_CALL: 0
BRANCH_INDIRECT_CALL: 0
BRANCH_RETURN: 0

