
*** ChampSim Multicore Out-of-Order Simulator ***

Warmup Instructions: 10000000
Simulation Instructions: 100000000
Number of CPUs: 1
Off-chip DRAM Size: 4 GiB Channels: 1 Width: 64-bit Data Rate: 3200 MT/s

VirtualMemory physical capacity: 8588881920 num_ppages: 2096895
VirtualMemory page size: 4096 log2_page_size: 12

CPU 0 runs /datasets/cs240c-wi22-a00-public/data/Assignment2/hmmer_7B.trace.xz
CPU 0 Bimodal branch predictor
Basic BTB sets: 1024 ways: 8 indirect buffer size: 4096 RAS size: 64
5th iteration
No hysteresis, common rrpv
Initialize Hawkeye state
Initialize SRRIP state
Heartbeat CPU 0 instructions: 10000004 cycles: 3986065 heartbeat IPC: 2.50874 cumulative IPC: 2.50874 (Simulation time: 0 hr 0 min 36 sec) 

Warmup complete CPU 0 instructions: 10000004 cycles: 3986065 (Simulation time: 0 hr 0 min 36 sec) 

Heartbeat CPU 0 instructions: 20000004 cycles: 9228450 heartbeat IPC: 1.90753 cumulative IPC: 1.90753 (Simulation time: 0 hr 1 min 27 sec) 
Heartbeat CPU 0 instructions: 30000001 cycles: 13958230 heartbeat IPC: 2.11426 cumulative IPC: 2.00558 (Simulation time: 0 hr 2 min 16 sec) 
Heartbeat CPU 0 instructions: 40000001 cycles: 18472306 heartbeat IPC: 2.21529 cumulative IPC: 2.07093 (Simulation time: 0 hr 3 min 4 sec) 
Heartbeat CPU 0 instructions: 50000000 cycles: 23813563 heartbeat IPC: 1.87222 cumulative IPC: 2.0174 (Simulation time: 0 hr 3 min 56 sec) 
Heartbeat CPU 0 instructions: 60000000 cycles: 28145137 heartbeat IPC: 2.30863 cumulative IPC: 2.06962 (Simulation time: 0 hr 4 min 43 sec) 
Heartbeat CPU 0 instructions: 70000003 cycles: 32468332 heartbeat IPC: 2.3131 cumulative IPC: 2.10657 (Simulation time: 0 hr 5 min 31 sec) 
Heartbeat CPU 0 instructions: 80000001 cycles: 36778067 heartbeat IPC: 2.32033 cumulative IPC: 2.13467 (Simulation time: 0 hr 6 min 18 sec) 
Heartbeat CPU 0 instructions: 90000004 cycles: 41097611 heartbeat IPC: 2.31506 cumulative IPC: 2.15566 (Simulation time: 0 hr 7 min 6 sec) 
Heartbeat CPU 0 instructions: 100000002 cycles: 45417922 heartbeat IPC: 2.31465 cumulative IPC: 2.17224 (Simulation time: 0 hr 7 min 53 sec) 
Heartbeat CPU 0 instructions: 110000001 cycles: 49750716 heartbeat IPC: 2.30798 cumulative IPC: 2.18509 (Simulation time: 0 hr 8 min 39 sec) 
Finished CPU 0 instructions: 100000002 cycles: 45764652 cumulative IPC: 2.18509 (Simulation time: 0 hr 8 min 39 sec) 

ChampSim completed all CPUs

Region of Interest Statistics

CPU 0 cumulative IPC: 2.18509 instructions: 100000002 cycles: 45764652
cpu0_DTLB TOTAL     ACCESS:   40543796  HIT:   40529641  MISS:      14155
cpu0_DTLB LOAD      ACCESS:   32388772  HIT:   32381056  MISS:       7716
cpu0_DTLB RFO       ACCESS:    8155024  HIT:    8148585  MISS:       6439
cpu0_DTLB PREFETCH  ACCESS:          0  HIT:          0  MISS:          0
cpu0_DTLB WRITEBACK ACCESS:          0  HIT:          0  MISS:          0
cpu0_DTLB TRANSLATION ACCESS:          0  HIT:          0  MISS:          0
cpu0_DTLB PREFETCH  REQUESTED:          0  ISSUED:          0  USEFUL:          0  USELESS:          0
cpu0_DTLB AVERAGE MISS LATENCY: 14.2726 cycles
cpu0_ITLB TOTAL     ACCESS:     800805  HIT:     800733  MISS:         72
cpu0_ITLB LOAD      ACCESS:     800805  HIT:     800733  MISS:         72
cpu0_ITLB RFO       ACCESS:          0  HIT:          0  MISS:          0
cpu0_ITLB PREFETCH  ACCESS:          0  HIT:          0  MISS:          0
cpu0_ITLB WRITEBACK ACCESS:          0  HIT:          0  MISS:          0
cpu0_ITLB TRANSLATION ACCESS:          0  HIT:          0  MISS:          0
cpu0_ITLB PREFETCH  REQUESTED:          0  ISSUED:          0  USEFUL:          0  USELESS:          0
cpu0_ITLB AVERAGE MISS LATENCY: 21 cycles
cpu0_L1I TOTAL     ACCESS:      62160  HIT:      62055  MISS:        105
cpu0_L1I LOAD      ACCESS:      62160  HIT:      62055  MISS:        105
cpu0_L1I RFO       ACCESS:          0  HIT:          0  MISS:          0
cpu0_L1I PREFETCH  ACCESS:          0  HIT:          0  MISS:          0
cpu0_L1I WRITEBACK ACCESS:          0  HIT:          0  MISS:          0
cpu0_L1I TRANSLATION ACCESS:          0  HIT:          0  MISS:          0
cpu0_L1I PREFETCH  REQUESTED:          0  ISSUED:          0  USEFUL:          0  USELESS:          0
cpu0_L1I AVERAGE MISS LATENCY: 102.724 cycles
cpu0_STLB TOTAL     ACCESS:      14227  HIT:      13772  MISS:        455
cpu0_STLB LOAD      ACCESS:       7788  HIT:       7780  MISS:          8
cpu0_STLB RFO       ACCESS:       6439  HIT:       5992  MISS:        447
cpu0_STLB PREFETCH  ACCESS:          0  HIT:          0  MISS:          0
cpu0_STLB WRITEBACK ACCESS:          0  HIT:          0  MISS:          0
cpu0_STLB TRANSLATION ACCESS:          0  HIT:          0  MISS:          0
cpu0_STLB PREFETCH  REQUESTED:          0  ISSUED:          0  USEFUL:          0  USELESS:          0
cpu0_STLB AVERAGE MISS LATENCY: 165.727 cycles
cpu0_L1D TOTAL     ACCESS:   33482440  HIT:   33012321  MISS:     470119
cpu0_L1D LOAD      ACCESS:   28671805  HIT:   28510417  MISS:     161388
cpu0_L1D RFO       ACCESS:    4810181  HIT:    4501473  MISS:     308708
cpu0_L1D PREFETCH  ACCESS:          0  HIT:          0  MISS:          0
cpu0_L1D WRITEBACK ACCESS:          0  HIT:          0  MISS:          0
cpu0_L1D TRANSLATION ACCESS:        454  HIT:        431  MISS:         23
cpu0_L1D PREFETCH  REQUESTED:          0  ISSUED:          0  USEFUL:          0  USELESS:          0
cpu0_L1D AVERAGE MISS LATENCY: 242.045 cycles
cpu0_L2C TOTAL     ACCESS:     777246  HIT:     472321  MISS:     304925
cpu0_L2C LOAD      ACCESS:     161493  HIT:     149257  MISS:      12236
cpu0_L2C RFO       ACCESS:     308708  HIT:      16074  MISS:     292634
cpu0_L2C PREFETCH  ACCESS:          0  HIT:          0  MISS:          0
cpu0_L2C WRITEBACK ACCESS:     307022  HIT:     306975  MISS:         47
cpu0_L2C TRANSLATION ACCESS:         23  HIT:         15  MISS:          8
cpu0_L2C PREFETCH  REQUESTED:          0  ISSUED:          0  USEFUL:          0  USELESS:          0
cpu0_L2C AVERAGE MISS LATENCY: 356.231 cycles
LLC TOTAL     ACCESS:     596417  HIT:     451290  MISS:     145127
LLC LOAD      ACCESS:      12235  HIT:      10682  MISS:       1553
LLC RFO       ACCESS:     292633  HIT:     209478  MISS:      83155
LLC PREFETCH  ACCESS:          0  HIT:          0  MISS:          0
LLC WRITEBACK ACCESS:     291541  HIT:     231123  MISS:      60418
LLC TRANSLATION ACCESS:          8  HIT:          7  MISS:          1
LLC PREFETCH  REQUESTED:          0  ISSUED:          0  USEFUL:          0  USELESS:          0
LLC AVERAGE MISS LATENCY: 704.25 cycles

DRAM Statistics
 CHANNEL 0
 RQ ROW_BUFFER_HIT:       1297  ROW_BUFFER_MISS:      83409
 DBUS AVG_CONGESTED_CYCLE:    3.99367
 WQ ROW_BUFFER_HIT:       4352  ROW_BUFFER_MISS:      75552  FULL:      11253


CPU 0 Branch Prediction Accuracy: 98.9368% MPKI: 0.40856 Average ROB Occupancy at Mispredict: 252.378
Branch type MPKI
BRANCH_DIRECT_JUMP: 0.00016
BRANCH_INDIRECT: 0.00157
BRANCH_CONDITIONAL: 0.40659
BRANCH_DIRECT_CALL: 9e-05
BRANCH_INDIRECT_CALL: 3e-05
BRANCH_RETURN: 0.00012

