
*** ChampSim Multicore Out-of-Order Simulator ***

Warmup Instructions: 10000000
Simulation Instructions: 100000000
Number of CPUs: 1
Off-chip DRAM Size: 4 GiB Channels: 1 Width: 64-bit Data Rate: 3200 MT/s

VirtualMemory physical capacity: 8588881920 num_ppages: 2096895
VirtualMemory page size: 4096 log2_page_size: 12

CPU 0 runs /datasets/cs240c-wi22-a00-public/data/Assignment2/lbm_564B.trace.xz
CPU 0 Bimodal branch predictor
Basic BTB sets: 1024 ways: 8 indirect buffer size: 4096 RAS size: 64
5th iteration
No hysteresis, common rrpv
Initialize Hawkeye state
Initialize SRRIP state
Heartbeat CPU 0 instructions: 10000000 cycles: 2507074 heartbeat IPC: 3.98871 cumulative IPC: 3.98871 (Simulation time: 0 hr 0 min 17 sec) 

Warmup complete CPU 0 instructions: 10000004 cycles: 2507075 (Simulation time: 0 hr 0 min 17 sec) 

Heartbeat CPU 0 instructions: 20000004 cycles: 36007617 heartbeat IPC: 0.298503 cumulative IPC: 0.298503 (Simulation time: 0 hr 1 min 52 sec) 
Heartbeat CPU 0 instructions: 30000000 cycles: 94223305 heartbeat IPC: 0.171775 cumulative IPC: 0.218064 (Simulation time: 0 hr 5 min 8 sec) 
Heartbeat CPU 0 instructions: 40000000 cycles: 127705761 heartbeat IPC: 0.298664 cumulative IPC: 0.239619 (Simulation time: 0 hr 6 min 42 sec) 
Heartbeat CPU 0 instructions: 50000000 cycles: 160033382 heartbeat IPC: 0.309333 cumulative IPC: 0.253926 (Simulation time: 0 hr 8 min 13 sec) 
Heartbeat CPU 0 instructions: 60000001 cycles: 193075404 heartbeat IPC: 0.302645 cumulative IPC: 0.262373 (Simulation time: 0 hr 9 min 46 sec) 
Heartbeat CPU 0 instructions: 70000002 cycles: 225906335 heartbeat IPC: 0.304591 cumulative IPC: 0.268577 (Simulation time: 0 hr 11 min 20 sec) 
Heartbeat CPU 0 instructions: 80000000 cycles: 260793289 heartbeat IPC: 0.28664 cumulative IPC: 0.271017 (Simulation time: 0 hr 13 min 0 sec) 
Heartbeat CPU 0 instructions: 90000003 cycles: 295587984 heartbeat IPC: 0.2874 cumulative IPC: 0.272962 (Simulation time: 0 hr 14 min 42 sec) 
Heartbeat CPU 0 instructions: 100000004 cycles: 329255588 heartbeat IPC: 0.297021 cumulative IPC: 0.275441 (Simulation time: 0 hr 16 min 21 sec) 
Heartbeat CPU 0 instructions: 110000003 cycles: 367575340 heartbeat IPC: 0.260962 cumulative IPC: 0.273921 (Simulation time: 0 hr 18 min 14 sec) 
Finished CPU 0 instructions: 100000004 cycles: 365068266 cumulative IPC: 0.273921 (Simulation time: 0 hr 18 min 14 sec) 

ChampSim completed all CPUs

Region of Interest Statistics

CPU 0 cumulative IPC: 0.273921 instructions: 100000004 cycles: 365068266
cpu0_DTLB TOTAL     ACCESS:   13902347  HIT:   13849573  MISS:      52774
cpu0_DTLB LOAD      ACCESS:    6990639  HIT:    6977440  MISS:      13199
cpu0_DTLB RFO       ACCESS:    6911708  HIT:    6872133  MISS:      39575
cpu0_DTLB PREFETCH  ACCESS:          0  HIT:          0  MISS:          0
cpu0_DTLB WRITEBACK ACCESS:          0  HIT:          0  MISS:          0
cpu0_DTLB TRANSLATION ACCESS:          0  HIT:          0  MISS:          0
cpu0_DTLB PREFETCH  REQUESTED:          0  ISSUED:          0  USEFUL:          0  USELESS:          0
cpu0_DTLB AVERAGE MISS LATENCY: 461.304 cycles
cpu0_ITLB TOTAL     ACCESS:     149996  HIT:     149995  MISS:          1
cpu0_ITLB LOAD      ACCESS:     149996  HIT:     149995  MISS:          1
cpu0_ITLB RFO       ACCESS:          0  HIT:          0  MISS:          0
cpu0_ITLB PREFETCH  ACCESS:          0  HIT:          0  MISS:          0
cpu0_ITLB WRITEBACK ACCESS:          0  HIT:          0  MISS:          0
cpu0_ITLB TRANSLATION ACCESS:          0  HIT:          0  MISS:          0
cpu0_ITLB PREFETCH  REQUESTED:          0  ISSUED:          0  USEFUL:          0  USELESS:          0
cpu0_ITLB AVERAGE MISS LATENCY: 1492 cycles
cpu0_L1I TOTAL     ACCESS:         12  HIT:          6  MISS:          6
cpu0_L1I LOAD      ACCESS:         12  HIT:          6  MISS:          6
cpu0_L1I RFO       ACCESS:          0  HIT:          0  MISS:          0
cpu0_L1I PREFETCH  ACCESS:          0  HIT:          0  MISS:          0
cpu0_L1I WRITEBACK ACCESS:          0  HIT:          0  MISS:          0
cpu0_L1I TRANSLATION ACCESS:          0  HIT:          0  MISS:          0
cpu0_L1I PREFETCH  REQUESTED:          0  ISSUED:          0  USEFUL:          0  USELESS:          0
cpu0_L1I AVERAGE MISS LATENCY: 652.167 cycles
cpu0_STLB TOTAL     ACCESS:      52775  HIT:          5  MISS:      52770
cpu0_STLB LOAD      ACCESS:      13200  HIT:          0  MISS:      13200
cpu0_STLB RFO       ACCESS:      39575  HIT:          5  MISS:      39570
cpu0_STLB PREFETCH  ACCESS:          0  HIT:          0  MISS:          0
cpu0_STLB WRITEBACK ACCESS:          0  HIT:          0  MISS:          0
cpu0_STLB TRANSLATION ACCESS:          0  HIT:          0  MISS:          0
cpu0_STLB PREFETCH  REQUESTED:          0  ISSUED:          0  USEFUL:          0  USELESS:          0
cpu0_STLB AVERAGE MISS LATENCY: 452.367 cycles
cpu0_L1D TOTAL     ACCESS:   15376022  HIT:    9809822  MISS:    5566200
cpu0_L1D LOAD      ACCESS:    4366563  HIT:    3522976  MISS:     843587
cpu0_L1D RFO       ACCESS:   10956705  HIT:    6234143  MISS:    4722562
cpu0_L1D PREFETCH  ACCESS:          0  HIT:          0  MISS:          0
cpu0_L1D WRITEBACK ACCESS:          0  HIT:          0  MISS:          0
cpu0_L1D TRANSLATION ACCESS:      52754  HIT:      52703  MISS:         51
cpu0_L1D PREFETCH  REQUESTED:          0  ISSUED:          0  USEFUL:          0  USELESS:          0
cpu0_L1D AVERAGE MISS LATENCY: 502.588 cycles
cpu0_L2C TOTAL     ACCESS:   10288766  HIT:    6913188  MISS:    3375578
cpu0_L2C LOAD      ACCESS:     843593  HIT:        222  MISS:     843371
cpu0_L2C RFO       ACCESS:    4722561  HIT:    2190531  MISS:    2532030
cpu0_L2C PREFETCH  ACCESS:          0  HIT:          0  MISS:          0
cpu0_L2C WRITEBACK ACCESS:    4722561  HIT:    4722435  MISS:        126
cpu0_L2C TRANSLATION ACCESS:         51  HIT:          0  MISS:         51
cpu0_L2C PREFETCH  REQUESTED:          0  ISSUED:          0  USEFUL:          0  USELESS:          0
cpu0_L2C AVERAGE MISS LATENCY: 809.316 cycles
LLC TOTAL     ACCESS:    5907523  HIT:    1443489  MISS:    4464034
LLC LOAD      ACCESS:     843371  HIT:         75  MISS:     843296
LLC RFO       ACCESS:    2532026  HIT:     449763  MISS:    2082263
LLC PREFETCH  ACCESS:          0  HIT:          0  MISS:          0
LLC WRITEBACK ACCESS:    2532075  HIT:     993642  MISS:    1538433
LLC TRANSLATION ACCESS:         51  HIT:          9  MISS:         42
LLC PREFETCH  REQUESTED:          0  ISSUED:          0  USEFUL:          0  USELESS:          0
LLC AVERAGE MISS LATENCY: 596.103 cycles

DRAM Statistics
 CHANNEL 0
 RQ ROW_BUFFER_HIT:      57185  ROW_BUFFER_MISS:    2868092
 DBUS AVG_CONGESTED_CYCLE:    3.99621
 WQ ROW_BUFFER_HIT:      26448  ROW_BUFFER_MISS:    2172993  FULL:          0


CPU 0 Branch Prediction Accuracy: 99.0902% MPKI: 0.11542 Average ROB Occupancy at Mispredict: 182.071
Branch type MPKI
BRANCH_DIRECT_JUMP: 2e-05
BRANCH_INDIRECT: 0
BRANCH_CONDITIONAL: 0.11536
BRANCH_DIRECT_CALL: 2e-05
BRANCH_INDIRECT_CALL: 0
BRANCH_RETURN: 2e-05

