
*** ChampSim Multicore Out-of-Order Simulator ***

Warmup Instructions: 10000000
Simulation Instructions: 100000000
Number of CPUs: 1
Off-chip DRAM Size: 4 GiB Channels: 1 Width: 64-bit Data Rate: 3200 MT/s

VirtualMemory physical capacity: 8588881920 num_ppages: 2096895
VirtualMemory page size: 4096 log2_page_size: 12

CPU 0 runs /datasets/cs240c-wi22-a00-public/data/Assignment2/mcf_250B.trace.xz
CPU 0 Bimodal branch predictor
Basic BTB sets: 1024 ways: 8 indirect buffer size: 4096 RAS size: 64
5th iteration
No hysteresis, common rrpv
Initialize Hawkeye state
Initialize SRRIP state
Heartbeat CPU 0 instructions: 10000004 cycles: 3834269 heartbeat IPC: 2.60806 cumulative IPC: 2.60806 (Simulation time: 0 hr 0 min 34 sec) 

Warmup complete CPU 0 instructions: 10000004 cycles: 3834269 (Simulation time: 0 hr 0 min 34 sec) 

Heartbeat CPU 0 instructions: 20000000 cycles: 146094146 heartbeat IPC: 0.0702939 cumulative IPC: 0.0702939 (Simulation time: 0 hr 3 min 20 sec) 
Heartbeat CPU 0 instructions: 30000000 cycles: 283645040 heartbeat IPC: 0.0727004 cumulative IPC: 0.0714769 (Simulation time: 0 hr 5 min 59 sec) 
Heartbeat CPU 0 instructions: 40000000 cycles: 429590205 heartbeat IPC: 0.0685189 cumulative IPC: 0.0704629 (Simulation time: 0 hr 8 min 45 sec) 
Heartbeat CPU 0 instructions: 50000000 cycles: 570182388 heartbeat IPC: 0.0711277 cumulative IPC: 0.0706279 (Simulation time: 0 hr 11 min 32 sec) 
Heartbeat CPU 0 instructions: 60000000 cycles: 710350015 heartbeat IPC: 0.0713431 cumulative IPC: 0.0707698 (Simulation time: 0 hr 14 min 20 sec) 
Heartbeat CPU 0 instructions: 70000000 cycles: 843503221 heartbeat IPC: 0.0751015 cumulative IPC: 0.0714567 (Simulation time: 0 hr 17 min 2 sec) 
Heartbeat CPU 0 instructions: 80000000 cycles: 986139784 heartbeat IPC: 0.0701082 cumulative IPC: 0.0712609 (Simulation time: 0 hr 19 min 55 sec) 
Heartbeat CPU 0 instructions: 90000000 cycles: 1108181171 heartbeat IPC: 0.0819394 cumulative IPC: 0.072441 (Simulation time: 0 hr 22 min 25 sec) 
Heartbeat CPU 0 instructions: 100000000 cycles: 1244460191 heartbeat IPC: 0.0733789 cumulative IPC: 0.072544 (Simulation time: 0 hr 25 min 10 sec) 
Heartbeat CPU 0 instructions: 110000000 cycles: 1387055323 heartbeat IPC: 0.0701286 cumulative IPC: 0.072295 (Simulation time: 0 hr 28 min 0 sec) 
Finished CPU 0 instructions: 100000000 cycles: 1383221065 cumulative IPC: 0.072295 (Simulation time: 0 hr 28 min 0 sec) 

ChampSim completed all CPUs

Region of Interest Statistics

CPU 0 cumulative IPC: 0.072295 instructions: 100000000 cycles: 1383221065
cpu0_DTLB TOTAL     ACCESS:   20765477  HIT:    2975202  MISS:   17790275
cpu0_DTLB LOAD      ACCESS:   20269644  HIT:    2535251  MISS:   17734393
cpu0_DTLB RFO       ACCESS:     495833  HIT:     439951  MISS:      55882
cpu0_DTLB PREFETCH  ACCESS:          0  HIT:          0  MISS:          0
cpu0_DTLB WRITEBACK ACCESS:          0  HIT:          0  MISS:          0
cpu0_DTLB TRANSLATION ACCESS:          0  HIT:          0  MISS:          0
cpu0_DTLB PREFETCH  REQUESTED:          0  ISSUED:          0  USEFUL:          0  USELESS:          0
cpu0_DTLB AVERAGE MISS LATENCY: 10.5154 cycles
cpu0_ITLB TOTAL     ACCESS:   11316005  HIT:   11316005  MISS:          0
cpu0_ITLB LOAD      ACCESS:   11316005  HIT:   11316005  MISS:          0
cpu0_ITLB RFO       ACCESS:          0  HIT:          0  MISS:          0
cpu0_ITLB PREFETCH  ACCESS:          0  HIT:          0  MISS:          0
cpu0_ITLB WRITEBACK ACCESS:          0  HIT:          0  MISS:          0
cpu0_ITLB TRANSLATION ACCESS:          0  HIT:          0  MISS:          0
cpu0_ITLB PREFETCH  REQUESTED:          0  ISSUED:          0  USEFUL:          0  USELESS:          0
cpu0_ITLB AVERAGE MISS LATENCY: -nan cycles
cpu0_L1I TOTAL     ACCESS:          4  HIT:          4  MISS:          0
cpu0_L1I LOAD      ACCESS:          4  HIT:          4  MISS:          0
cpu0_L1I RFO       ACCESS:          0  HIT:          0  MISS:          0
cpu0_L1I PREFETCH  ACCESS:          0  HIT:          0  MISS:          0
cpu0_L1I WRITEBACK ACCESS:          0  HIT:          0  MISS:          0
cpu0_L1I TRANSLATION ACCESS:          0  HIT:          0  MISS:          0
cpu0_L1I PREFETCH  REQUESTED:          0  ISSUED:          0  USEFUL:          0  USELESS:          0
cpu0_L1I AVERAGE MISS LATENCY: -nan cycles
cpu0_STLB TOTAL     ACCESS:   17790275  HIT:   17413123  MISS:     377152
cpu0_STLB LOAD      ACCESS:   17734393  HIT:   17359378  MISS:     375015
cpu0_STLB RFO       ACCESS:      55882  HIT:      53745  MISS:       2137
cpu0_STLB PREFETCH  ACCESS:          0  HIT:          0  MISS:          0
cpu0_STLB WRITEBACK ACCESS:          0  HIT:          0  MISS:          0
cpu0_STLB TRANSLATION ACCESS:          0  HIT:          0  MISS:          0
cpu0_STLB PREFETCH  REQUESTED:          0  ISSUED:          0  USEFUL:          0  USELESS:          0
cpu0_STLB AVERAGE MISS LATENCY: 71.4548 cycles
cpu0_L1D TOTAL     ACCESS:   21382874  HIT:    3438962  MISS:   17943912
cpu0_L1D LOAD      ACCESS:   20342070  HIT:    2558088  MISS:   17783982
cpu0_L1D RFO       ACCESS:     664704  HIT:     633045  MISS:      31659
cpu0_L1D PREFETCH  ACCESS:          0  HIT:          0  MISS:          0
cpu0_L1D WRITEBACK ACCESS:          0  HIT:          0  MISS:          0
cpu0_L1D TRANSLATION ACCESS:     376100  HIT:     247829  MISS:     128271
cpu0_L1D PREFETCH  REQUESTED:          0  ISSUED:          0  USEFUL:          0  USELESS:          0
cpu0_L1D AVERAGE MISS LATENCY: 227.908 cycles
cpu0_L2C TOTAL     ACCESS:   18302852  HIT:    5792661  MISS:   12510191
cpu0_L2C LOAD      ACCESS:   17783954  HIT:    5386662  MISS:   12397292
cpu0_L2C RFO       ACCESS:      31658  HIT:       9143  MISS:      22515
cpu0_L2C PREFETCH  ACCESS:          0  HIT:          0  MISS:          0
cpu0_L2C WRITEBACK ACCESS:     358969  HIT:     358967  MISS:          2
cpu0_L2C TRANSLATION ACCESS:     128271  HIT:      37889  MISS:      90382
cpu0_L2C PREFETCH  REQUESTED:          0  ISSUED:          0  USEFUL:          0  USELESS:          0
cpu0_L2C AVERAGE MISS LATENCY: 311.109 cycles
LLC TOTAL     ACCESS:   12800453  HIT:    5933717  MISS:    6866736
LLC LOAD      ACCESS:   12397292  HIT:    5652917  MISS:    6744375
LLC RFO       ACCESS:      22515  HIT:      13549  MISS:       8966
LLC PREFETCH  ACCESS:          0  HIT:          0  MISS:          0
LLC WRITEBACK ACCESS:     290264  HIT:     183698  MISS:     106566
LLC TRANSLATION ACCESS:      90382  HIT:      83553  MISS:       6829
LLC PREFETCH  REQUESTED:          0  ISSUED:          0  USEFUL:          0  USELESS:          0
LLC AVERAGE MISS LATENCY: 528.536 cycles

DRAM Statistics
 CHANNEL 0
 RQ ROW_BUFFER_HIT:       2987  ROW_BUFFER_MISS:    6757117
 DBUS AVG_CONGESTED_CYCLE:    3.96199
 WQ ROW_BUFFER_HIT:      12021  ROW_BUFFER_MISS:     145515  FULL:          0


CPU 0 Branch Prediction Accuracy: 91.6559% MPKI: 25.5287 Average ROB Occupancy at Mispredict: 24.492
Branch type MPKI
BRANCH_DIRECT_JUMP: 2e-05
BRANCH_INDIRECT: 0
BRANCH_CONDITIONAL: 25.5287
BRANCH_DIRECT_CALL: 0
BRANCH_INDIRECT_CALL: 0
BRANCH_RETURN: 0

