
*** ChampSim Multicore Out-of-Order Simulator ***

Warmup Instructions: 10000000
Simulation Instructions: 100000000
Number of CPUs: 1
Off-chip DRAM Size: 4 GiB Channels: 1 Width: 64-bit Data Rate: 3200 MT/s

VirtualMemory physical capacity: 8588881920 num_ppages: 2096895
VirtualMemory page size: 4096 log2_page_size: 12

CPU 0 runs /datasets/cs240c-wi22-a00-public/data/Assignment2/sphinx3_1339B.trace.xz
CPU 0 Bimodal branch predictor
Basic BTB sets: 1024 ways: 8 indirect buffer size: 4096 RAS size: 64
5th iteration
No hysteresis, common rrpv
Initialize Hawkeye state
Initialize SRRIP state
Heartbeat CPU 0 instructions: 10000000 cycles: 2584401 heartbeat IPC: 3.86937 cumulative IPC: 3.86937 (Simulation time: 0 hr 0 min 19 sec) 

Warmup complete CPU 0 instructions: 10000004 cycles: 2584402 (Simulation time: 0 hr 0 min 19 sec) 

Heartbeat CPU 0 instructions: 20000003 cycles: 11007225 heartbeat IPC: 1.18725 cumulative IPC: 1.18725 (Simulation time: 0 hr 0 min 53 sec) 
Heartbeat CPU 0 instructions: 30000001 cycles: 18548216 heartbeat IPC: 1.32609 cumulative IPC: 1.25283 (Simulation time: 0 hr 1 min 25 sec) 
Heartbeat CPU 0 instructions: 40000002 cycles: 26507463 heartbeat IPC: 1.2564 cumulative IPC: 1.25402 (Simulation time: 0 hr 1 min 57 sec) 
Heartbeat CPU 0 instructions: 50000004 cycles: 34132035 heartbeat IPC: 1.31155 cumulative IPC: 1.26792 (Simulation time: 0 hr 2 min 29 sec) 
Heartbeat CPU 0 instructions: 60000003 cycles: 41756030 heartbeat IPC: 1.31165 cumulative IPC: 1.27643 (Simulation time: 0 hr 3 min 2 sec) 
Heartbeat CPU 0 instructions: 70000002 cycles: 49472535 heartbeat IPC: 1.29592 cumulative IPC: 1.27964 (Simulation time: 0 hr 3 min 34 sec) 
Heartbeat CPU 0 instructions: 80000001 cycles: 57001946 heartbeat IPC: 1.32812 cumulative IPC: 1.28635 (Simulation time: 0 hr 4 min 6 sec) 
Heartbeat CPU 0 instructions: 90000004 cycles: 64420843 heartbeat IPC: 1.34791 cumulative IPC: 1.29374 (Simulation time: 0 hr 4 min 39 sec) 
Heartbeat CPU 0 instructions: 100000001 cycles: 72162480 heartbeat IPC: 1.29172 cumulative IPC: 1.29351 (Simulation time: 0 hr 5 min 11 sec) 
Heartbeat CPU 0 instructions: 110000000 cycles: 80763500 heartbeat IPC: 1.16265 cumulative IPC: 1.27911 (Simulation time: 0 hr 5 min 45 sec) 
Finished CPU 0 instructions: 100000001 cycles: 78179099 cumulative IPC: 1.27911 (Simulation time: 0 hr 5 min 45 sec) 

ChampSim completed all CPUs

Region of Interest Statistics

CPU 0 cumulative IPC: 1.27911 instructions: 100000001 cycles: 78179099
cpu0_DTLB TOTAL     ACCESS:   16105084  HIT:   15996340  MISS:     108744
cpu0_DTLB LOAD      ACCESS:   14954478  HIT:   14851687  MISS:     102791
cpu0_DTLB RFO       ACCESS:    1150606  HIT:    1144653  MISS:       5953
cpu0_DTLB PREFETCH  ACCESS:          0  HIT:          0  MISS:          0
cpu0_DTLB WRITEBACK ACCESS:          0  HIT:          0  MISS:          0
cpu0_DTLB TRANSLATION ACCESS:          0  HIT:          0  MISS:          0
cpu0_DTLB PREFETCH  REQUESTED:          0  ISSUED:          0  USEFUL:          0  USELESS:          0
cpu0_DTLB AVERAGE MISS LATENCY: 13.2546 cycles
cpu0_ITLB TOTAL     ACCESS:    9379552  HIT:    9379510  MISS:         42
cpu0_ITLB LOAD      ACCESS:    9379552  HIT:    9379510  MISS:         42
cpu0_ITLB RFO       ACCESS:          0  HIT:          0  MISS:          0
cpu0_ITLB PREFETCH  ACCESS:          0  HIT:          0  MISS:          0
cpu0_ITLB WRITEBACK ACCESS:          0  HIT:          0  MISS:          0
cpu0_ITLB TRANSLATION ACCESS:          0  HIT:          0  MISS:          0
cpu0_ITLB PREFETCH  REQUESTED:          0  ISSUED:          0  USEFUL:          0  USELESS:          0
cpu0_ITLB AVERAGE MISS LATENCY: 122.881 cycles
cpu0_L1I TOTAL     ACCESS:     300060  HIT:     298492  MISS:       1568
cpu0_L1I LOAD      ACCESS:     300060  HIT:     298492  MISS:       1568
cpu0_L1I RFO       ACCESS:          0  HIT:          0  MISS:          0
cpu0_L1I PREFETCH  ACCESS:          0  HIT:          0  MISS:          0
cpu0_L1I WRITEBACK ACCESS:          0  HIT:          0  MISS:          0
cpu0_L1I TRANSLATION ACCESS:          0  HIT:          0  MISS:          0
cpu0_L1I PREFETCH  REQUESTED:          0  ISSUED:          0  USEFUL:          0  USELESS:          0
cpu0_L1I AVERAGE MISS LATENCY: 176.74 cycles
cpu0_STLB TOTAL     ACCESS:     108786  HIT:      69673  MISS:      39113
cpu0_STLB LOAD      ACCESS:     102833  HIT:      64809  MISS:      38024
cpu0_STLB RFO       ACCESS:       5953  HIT:       4864  MISS:       1089
cpu0_STLB PREFETCH  ACCESS:          0  HIT:          0  MISS:          0
cpu0_STLB WRITEBACK ACCESS:          0  HIT:          0  MISS:          0
cpu0_STLB TRANSLATION ACCESS:          0  HIT:          0  MISS:          0
cpu0_STLB PREFETCH  REQUESTED:          0  ISSUED:          0  USEFUL:          0  USELESS:          0
cpu0_STLB AVERAGE MISS LATENCY: 11.8077 cycles
cpu0_L1D TOTAL     ACCESS:   12155207  HIT:   10656037  MISS:    1499170
cpu0_L1D LOAD      ACCESS:   10363298  HIT:    8985231  MISS:    1378067
cpu0_L1D RFO       ACCESS:    1754877  HIT:    1634273  MISS:     120604
cpu0_L1D PREFETCH  ACCESS:          0  HIT:          0  MISS:          0
cpu0_L1D WRITEBACK ACCESS:          0  HIT:          0  MISS:          0
cpu0_L1D TRANSLATION ACCESS:      37032  HIT:      36533  MISS:        499
cpu0_L1D PREFETCH  REQUESTED:          0  ISSUED:          0  USEFUL:          0  USELESS:          0
cpu0_L1D AVERAGE MISS LATENCY: 82.9452 cycles
cpu0_L2C TOTAL     ACCESS:    1642853  HIT:     358308  MISS:    1284545
cpu0_L2C LOAD      ACCESS:    1379622  HIT:     204267  MISS:    1175355
cpu0_L2C RFO       ACCESS:     120603  HIT:      11968  MISS:     108635
cpu0_L2C PREFETCH  ACCESS:          0  HIT:          0  MISS:          0
cpu0_L2C WRITEBACK ACCESS:     142129  HIT:     141862  MISS:        267
cpu0_L2C TRANSLATION ACCESS:        499  HIT:        211  MISS:        288
cpu0_L2C PREFETCH  REQUESTED:          0  ISSUED:          0  USEFUL:          0  USELESS:          0
cpu0_L2C AVERAGE MISS LATENCY: 84.1284 cycles
LLC TOTAL     ACCESS:    1413651  HIT:     936559  MISS:     477092
LLC LOAD      ACCESS:    1175347  HIT:     728127  MISS:     447220
LLC RFO       ACCESS:     108635  HIT:      92887  MISS:      15748
LLC PREFETCH  ACCESS:          0  HIT:          0  MISS:          0
LLC WRITEBACK ACCESS:     129381  HIT:     115269  MISS:      14112
LLC TRANSLATION ACCESS:        288  HIT:        276  MISS:         12
LLC PREFETCH  REQUESTED:          0  ISSUED:          0  USEFUL:          0  USELESS:          0
LLC AVERAGE MISS LATENCY: 169.977 cycles

DRAM Statistics
 CHANNEL 0
 RQ ROW_BUFFER_HIT:      84072  ROW_BUFFER_MISS:     378792
 DBUS AVG_CONGESTED_CYCLE:    3.74703
 WQ ROW_BUFFER_HIT:      11178  ROW_BUFFER_MISS:      11695  FULL:          0


CPU 0 Branch Prediction Accuracy: 92.5867% MPKI: 6.65069 Average ROB Occupancy at Mispredict: 178.807
Branch type MPKI
BRANCH_DIRECT_JUMP: 0.00112
BRANCH_INDIRECT: 0
BRANCH_CONDITIONAL: 6.64811
BRANCH_DIRECT_CALL: 0.00071
BRANCH_INDIRECT_CALL: 3e-05
BRANCH_RETURN: 0.00072

