
*** ChampSim Multicore Out-of-Order Simulator ***

Warmup Instructions: 10000000
Simulation Instructions: 100000000
Number of CPUs: 1
Off-chip DRAM Size: 4 GiB Channels: 1 Width: 64-bit Data Rate: 3200 MT/s

VirtualMemory physical capacity: 8588881920 num_ppages: 2096895
VirtualMemory page size: 4096 log2_page_size: 12

CPU 0 runs /datasets/cs240c-wi22-a00-public/data/Assignment2/wrf_1228B.trace.xz
CPU 0 Bimodal branch predictor
Basic BTB sets: 1024 ways: 8 indirect buffer size: 4096 RAS size: 64
5th iteration
No hysteresis, common rrpv
Initialize Hawkeye state
Initialize SRRIP state
Heartbeat CPU 0 instructions: 10000001 cycles: 3904483 heartbeat IPC: 2.56116 cumulative IPC: 2.56116 (Simulation time: 0 hr 0 min 36 sec) 

Warmup complete CPU 0 instructions: 10000001 cycles: 3904483 (Simulation time: 0 hr 0 min 36 sec) 

Heartbeat CPU 0 instructions: 20000001 cycles: 12352670 heartbeat IPC: 1.18369 cumulative IPC: 1.18369 (Simulation time: 0 hr 1 min 23 sec) 
Heartbeat CPU 0 instructions: 30000004 cycles: 24940558 heartbeat IPC: 0.794415 cumulative IPC: 0.950748 (Simulation time: 0 hr 2 min 27 sec) 
Heartbeat CPU 0 instructions: 40000000 cycles: 37515948 heartbeat IPC: 0.795204 cumulative IPC: 0.892553 (Simulation time: 0 hr 3 min 32 sec) 
Heartbeat CPU 0 instructions: 50000001 cycles: 45271645 heartbeat IPC: 1.28937 cumulative IPC: 0.966951 (Simulation time: 0 hr 4 min 17 sec) 
Heartbeat CPU 0 instructions: 60000004 cycles: 55549510 heartbeat IPC: 0.972965 cumulative IPC: 0.968147 (Simulation time: 0 hr 5 min 13 sec) 
Heartbeat CPU 0 instructions: 70000001 cycles: 66859975 heartbeat IPC: 0.884137 cumulative IPC: 0.953054 (Simulation time: 0 hr 6 min 5 sec) 
Heartbeat CPU 0 instructions: 80000004 cycles: 76569923 heartbeat IPC: 1.02987 cumulative IPC: 0.963319 (Simulation time: 0 hr 6 min 46 sec) 
Heartbeat CPU 0 instructions: 90000001 cycles: 86254838 heartbeat IPC: 1.03253 cumulative IPC: 0.971459 (Simulation time: 0 hr 7 min 25 sec) 
Heartbeat CPU 0 instructions: 100000002 cycles: 95933178 heartbeat IPC: 1.03324 cumulative IPC: 0.977956 (Simulation time: 0 hr 8 min 5 sec) 
Heartbeat CPU 0 instructions: 110000000 cycles: 105603341 heartbeat IPC: 1.03411 cumulative IPC: 0.983295 (Simulation time: 0 hr 8 min 44 sec) 
Finished CPU 0 instructions: 100000004 cycles: 101698859 cumulative IPC: 0.983295 (Simulation time: 0 hr 8 min 44 sec) 

ChampSim completed all CPUs

Region of Interest Statistics

CPU 0 cumulative IPC: 0.983295 instructions: 100000004 cycles: 101698859
cpu0_DTLB TOTAL     ACCESS:   19680914  HIT:   19584678  MISS:      96236
cpu0_DTLB LOAD      ACCESS:   17660068  HIT:   17578140  MISS:      81928
cpu0_DTLB RFO       ACCESS:    2020846  HIT:    2006538  MISS:      14308
cpu0_DTLB PREFETCH  ACCESS:          0  HIT:          0  MISS:          0
cpu0_DTLB WRITEBACK ACCESS:          0  HIT:          0  MISS:          0
cpu0_DTLB TRANSLATION ACCESS:          0  HIT:          0  MISS:          0
cpu0_DTLB PREFETCH  REQUESTED:          0  ISSUED:          0  USEFUL:          0  USELESS:          0
cpu0_DTLB AVERAGE MISS LATENCY: 20.0273 cycles
cpu0_ITLB TOTAL     ACCESS:    4202881  HIT:    4202869  MISS:         12
cpu0_ITLB LOAD      ACCESS:    4202881  HIT:    4202869  MISS:         12
cpu0_ITLB RFO       ACCESS:          0  HIT:          0  MISS:          0
cpu0_ITLB PREFETCH  ACCESS:          0  HIT:          0  MISS:          0
cpu0_ITLB WRITEBACK ACCESS:          0  HIT:          0  MISS:          0
cpu0_ITLB TRANSLATION ACCESS:          0  HIT:          0  MISS:          0
cpu0_ITLB PREFETCH  REQUESTED:          0  ISSUED:          0  USEFUL:          0  USELESS:          0
cpu0_ITLB AVERAGE MISS LATENCY: 256 cycles
cpu0_L1I TOTAL     ACCESS:    6678748  HIT:    6678000  MISS:        748
cpu0_L1I LOAD      ACCESS:    6678748  HIT:    6678000  MISS:        748
cpu0_L1I RFO       ACCESS:          0  HIT:          0  MISS:          0
cpu0_L1I PREFETCH  ACCESS:          0  HIT:          0  MISS:          0
cpu0_L1I WRITEBACK ACCESS:          0  HIT:          0  MISS:          0
cpu0_L1I TRANSLATION ACCESS:          0  HIT:          0  MISS:          0
cpu0_L1I PREFETCH  REQUESTED:          0  ISSUED:          0  USEFUL:          0  USELESS:          0
cpu0_L1I AVERAGE MISS LATENCY: 311.844 cycles
cpu0_STLB TOTAL     ACCESS:      96248  HIT:      86694  MISS:       9554
cpu0_STLB LOAD      ACCESS:      81940  HIT:      75032  MISS:       6908
cpu0_STLB RFO       ACCESS:      14308  HIT:      11662  MISS:       2646
cpu0_STLB PREFETCH  ACCESS:          0  HIT:          0  MISS:          0
cpu0_STLB WRITEBACK ACCESS:          0  HIT:          0  MISS:          0
cpu0_STLB TRANSLATION ACCESS:          0  HIT:          0  MISS:          0
cpu0_STLB PREFETCH  REQUESTED:          0  ISSUED:          0  USEFUL:          0  USELESS:          0
cpu0_STLB AVERAGE MISS LATENCY: 111.367 cycles
cpu0_L1D TOTAL     ACCESS:   18869019  HIT:   17510607  MISS:    1358412
cpu0_L1D LOAD      ACCESS:   14827378  HIT:   13728287  MISS:    1099091
cpu0_L1D RFO       ACCESS:    4032096  HIT:    3773563  MISS:     258533
cpu0_L1D PREFETCH  ACCESS:          0  HIT:          0  MISS:          0
cpu0_L1D WRITEBACK ACCESS:          0  HIT:          0  MISS:          0
cpu0_L1D TRANSLATION ACCESS:       9545  HIT:       8757  MISS:        788
cpu0_L1D PREFETCH  REQUESTED:          0  ISSUED:          0  USEFUL:          0  USELESS:          0
cpu0_L1D AVERAGE MISS LATENCY: 221.163 cycles
cpu0_L2C TOTAL     ACCESS:    1836361  HIT:     802922  MISS:    1033439
cpu0_L2C LOAD      ACCESS:    1099806  HIT:     287183  MISS:     812623
cpu0_L2C RFO       ACCESS:     258531  HIT:      39513  MISS:     219018
cpu0_L2C PREFETCH  ACCESS:          0  HIT:          0  MISS:          0
cpu0_L2C WRITEBACK ACCESS:     477236  HIT:     475549  MISS:       1687
cpu0_L2C TRANSLATION ACCESS:        788  HIT:        677  MISS:        111
cpu0_L2C PREFETCH  REQUESTED:          0  ISSUED:          0  USEFUL:          0  USELESS:          0
cpu0_L2C AVERAGE MISS LATENCY: 276.446 cycles
LLC TOTAL     ACCESS:    1463804  HIT:     470939  MISS:     992865
LLC LOAD      ACCESS:     812623  HIT:     192244  MISS:     620379
LLC RFO       ACCESS:     219018  HIT:      24080  MISS:     194938
LLC PREFETCH  ACCESS:          0  HIT:          0  MISS:          0
LLC WRITEBACK ACCESS:     432052  HIT:     254574  MISS:     177478
LLC TRANSLATION ACCESS:        111  HIT:         41  MISS:         70
LLC PREFETCH  REQUESTED:          0  ISSUED:          0  USEFUL:          0  USELESS:          0
LLC AVERAGE MISS LATENCY: 265.918 cycles

DRAM Statistics
 CHANNEL 0
 RQ ROW_BUFFER_HIT:      87996  ROW_BUFFER_MISS:     727130
 DBUS AVG_CONGESTED_CYCLE:     3.9276
 WQ ROW_BUFFER_HIT:      25194  ROW_BUFFER_MISS:     276346  FULL:       2495


CPU 0 Branch Prediction Accuracy: 97.4481% MPKI: 2.04611 Average ROB Occupancy at Mispredict: 260.31
Branch type MPKI
BRANCH_DIRECT_JUMP: 0.00028
BRANCH_INDIRECT: 0
BRANCH_CONDITIONAL: 2.0456
BRANCH_DIRECT_CALL: 0.00011
BRANCH_INDIRECT_CALL: 0
BRANCH_RETURN: 0.00012

