
*** ChampSim Multicore Out-of-Order Simulator ***

Warmup Instructions: 10000000
Simulation Instructions: 100000000
Number of CPUs: 1
Off-chip DRAM Size: 4 GiB Channels: 1 Width: 64-bit Data Rate: 3200 MT/s

VirtualMemory physical capacity: 8588881920 num_ppages: 2096895
VirtualMemory page size: 4096 log2_page_size: 12

CPU 0 runs /datasets/cs240c-wi22-a00-public/data/Assignment2/wrf_1212B.trace.xz
CPU 0 Bimodal branch predictor
Basic BTB sets: 1024 ways: 8 indirect buffer size: 4096 RAS size: 64
5th iteration
No hysteresis, common rrpv
Initialize Hawkeye state
Initialize SRRIP state
Heartbeat CPU 0 instructions: 10000004 cycles: 2552145 heartbeat IPC: 3.91827 cumulative IPC: 3.91827 (Simulation time: 0 hr 0 min 21 sec) 

Warmup complete CPU 0 instructions: 10000004 cycles: 2552145 (Simulation time: 0 hr 0 min 21 sec) 

Heartbeat CPU 0 instructions: 20000000 cycles: 9018758 heartbeat IPC: 1.5464 cumulative IPC: 1.5464 (Simulation time: 0 hr 0 min 53 sec) 
Heartbeat CPU 0 instructions: 30000002 cycles: 15456784 heartbeat IPC: 1.55327 cumulative IPC: 1.54983 (Simulation time: 0 hr 1 min 26 sec) 
Heartbeat CPU 0 instructions: 40000002 cycles: 21898747 heartbeat IPC: 1.55232 cumulative IPC: 1.55066 (Simulation time: 0 hr 1 min 59 sec) 
Heartbeat CPU 0 instructions: 50000003 cycles: 28353601 heartbeat IPC: 1.54922 cumulative IPC: 1.5503 (Simulation time: 0 hr 2 min 32 sec) 
Heartbeat CPU 0 instructions: 60000000 cycles: 34834115 heartbeat IPC: 1.54309 cumulative IPC: 1.54885 (Simulation time: 0 hr 3 min 5 sec) 
Heartbeat CPU 0 instructions: 70000002 cycles: 41476951 heartbeat IPC: 1.50538 cumulative IPC: 1.54143 (Simulation time: 0 hr 3 min 37 sec) 
Heartbeat CPU 0 instructions: 80000001 cycles: 48083743 heartbeat IPC: 1.51359 cumulative IPC: 1.53739 (Simulation time: 0 hr 4 min 10 sec) 
Heartbeat CPU 0 instructions: 90000000 cycles: 54579292 heartbeat IPC: 1.53952 cumulative IPC: 1.53766 (Simulation time: 0 hr 4 min 43 sec) 
Heartbeat CPU 0 instructions: 100000003 cycles: 61029176 heartbeat IPC: 1.55042 cumulative IPC: 1.53907 (Simulation time: 0 hr 5 min 16 sec) 
Heartbeat CPU 0 instructions: 110000001 cycles: 67427671 heartbeat IPC: 1.56287 cumulative IPC: 1.54141 (Simulation time: 0 hr 5 min 49 sec) 
Finished CPU 0 instructions: 100000002 cycles: 64875527 cumulative IPC: 1.54141 (Simulation time: 0 hr 5 min 49 sec) 

ChampSim completed all CPUs

Region of Interest Statistics

CPU 0 cumulative IPC: 1.54141 instructions: 100000002 cycles: 64875527
cpu0_DTLB TOTAL     ACCESS:   18869666  HIT:   18629108  MISS:     240558
cpu0_DTLB LOAD      ACCESS:   12070840  HIT:   11914320  MISS:     156520
cpu0_DTLB RFO       ACCESS:    6798826  HIT:    6714788  MISS:      84038
cpu0_DTLB PREFETCH  ACCESS:          0  HIT:          0  MISS:          0
cpu0_DTLB WRITEBACK ACCESS:          0  HIT:          0  MISS:          0
cpu0_DTLB TRANSLATION ACCESS:          0  HIT:          0  MISS:          0
cpu0_DTLB PREFETCH  REQUESTED:          0  ISSUED:          0  USEFUL:          0  USELESS:          0
cpu0_DTLB AVERAGE MISS LATENCY: 14.8961 cycles
cpu0_ITLB TOTAL     ACCESS:    5651243  HIT:    5651243  MISS:          0
cpu0_ITLB LOAD      ACCESS:    5651243  HIT:    5651243  MISS:          0
cpu0_ITLB RFO       ACCESS:          0  HIT:          0  MISS:          0
cpu0_ITLB PREFETCH  ACCESS:          0  HIT:          0  MISS:          0
cpu0_ITLB WRITEBACK ACCESS:          0  HIT:          0  MISS:          0
cpu0_ITLB TRANSLATION ACCESS:          0  HIT:          0  MISS:          0
cpu0_ITLB PREFETCH  REQUESTED:          0  ISSUED:          0  USEFUL:          0  USELESS:          0
cpu0_ITLB AVERAGE MISS LATENCY: -nan cycles
cpu0_L1I TOTAL     ACCESS:    9013366  HIT:    8969557  MISS:      43809
cpu0_L1I LOAD      ACCESS:    9013366  HIT:    8969557  MISS:      43809
cpu0_L1I RFO       ACCESS:          0  HIT:          0  MISS:          0
cpu0_L1I PREFETCH  ACCESS:          0  HIT:          0  MISS:          0
cpu0_L1I WRITEBACK ACCESS:          0  HIT:          0  MISS:          0
cpu0_L1I TRANSLATION ACCESS:          0  HIT:          0  MISS:          0
cpu0_L1I PREFETCH  REQUESTED:          0  ISSUED:          0  USEFUL:          0  USELESS:          0
cpu0_L1I AVERAGE MISS LATENCY: 11.773 cycles
cpu0_STLB TOTAL     ACCESS:     240558  HIT:     239295  MISS:       1263
cpu0_STLB LOAD      ACCESS:     156520  HIT:     155271  MISS:       1249
cpu0_STLB RFO       ACCESS:      84038  HIT:      84024  MISS:         14
cpu0_STLB PREFETCH  ACCESS:          0  HIT:          0  MISS:          0
cpu0_STLB WRITEBACK ACCESS:          0  HIT:          0  MISS:          0
cpu0_STLB TRANSLATION ACCESS:          0  HIT:          0  MISS:          0
cpu0_STLB PREFETCH  REQUESTED:          0  ISSUED:          0  USEFUL:          0  USELESS:          0
cpu0_STLB AVERAGE MISS LATENCY: 1103.81 cycles
cpu0_L1D TOTAL     ACCESS:   29575772  HIT:   29172163  MISS:     403609
cpu0_L1D LOAD      ACCESS:   14322476  HIT:   13997823  MISS:     324653
cpu0_L1D RFO       ACCESS:   15252321  HIT:   15173591  MISS:      78730
cpu0_L1D PREFETCH  ACCESS:          0  HIT:          0  MISS:          0
cpu0_L1D WRITEBACK ACCESS:          0  HIT:          0  MISS:          0
cpu0_L1D TRANSLATION ACCESS:        975  HIT:        749  MISS:        226
cpu0_L1D PREFETCH  REQUESTED:          0  ISSUED:          0  USEFUL:          0  USELESS:          0
cpu0_L1D AVERAGE MISS LATENCY: 118.224 cycles
cpu0_L2C TOTAL     ACCESS:     589993  HIT:     511528  MISS:      78465
cpu0_L2C LOAD      ACCESS:     368462  HIT:     291154  MISS:      77308
cpu0_L2C RFO       ACCESS:      77259  HIT:      76345  MISS:        914
cpu0_L2C PREFETCH  ACCESS:          0  HIT:          0  MISS:          0
cpu0_L2C WRITEBACK ACCESS:     144046  HIT:     143821  MISS:        225
cpu0_L2C TRANSLATION ACCESS:        226  HIT:        208  MISS:         18
cpu0_L2C PREFETCH  REQUESTED:          0  ISSUED:          0  USEFUL:          0  USELESS:          0
cpu0_L2C AVERAGE MISS LATENCY: 551.413 cycles
LLC TOTAL     ACCESS:     115154  HIT:      19852  MISS:      95302
LLC LOAD      ACCESS:      77308  HIT:        293  MISS:      77015
LLC RFO       ACCESS:        914  HIT:          9  MISS:        905
LLC PREFETCH  ACCESS:          0  HIT:          0  MISS:          0
LLC WRITEBACK ACCESS:      36914  HIT:      19537  MISS:      17377
LLC TRANSLATION ACCESS:         18  HIT:         13  MISS:          5
LLC PREFETCH  REQUESTED:          0  ISSUED:          0  USEFUL:          0  USELESS:          0
LLC AVERAGE MISS LATENCY: 436.755 cycles

DRAM Statistics
 CHANNEL 0
 RQ ROW_BUFFER_HIT:       2510  ROW_BUFFER_MISS:      75415
 DBUS AVG_CONGESTED_CYCLE:    3.96295
 WQ ROW_BUFFER_HIT:        306  ROW_BUFFER_MISS:      24018  FULL:          0


CPU 0 Branch Prediction Accuracy: 97.2223% MPKI: 4.86341 Average ROB Occupancy at Mispredict: 61.3848
Branch type MPKI
BRANCH_DIRECT_JUMP: 0.00019
BRANCH_INDIRECT: 0
BRANCH_CONDITIONAL: 4.86284
BRANCH_DIRECT_CALL: 0.00021
BRANCH_INDIRECT_CALL: 0
BRANCH_RETURN: 0.00017

