
*** ChampSim Multicore Out-of-Order Simulator ***

Warmup Instructions: 10000000
Simulation Instructions: 100000000
Number of CPUs: 1
Off-chip DRAM Size: 4 GiB Channels: 1 Width: 64-bit Data Rate: 3200 MT/s

VirtualMemory physical capacity: 8588881920 num_ppages: 2096895
VirtualMemory page size: 4096 log2_page_size: 12

CPU 0 runs /datasets/cs240c-wi22-a00-public/data/Assignment2/wrf_1650B.trace.xz
CPU 0 Bimodal branch predictor
Basic BTB sets: 1024 ways: 8 indirect buffer size: 4096 RAS size: 64
5th iteration
No hysteresis, common rrpv
Initialize Hawkeye state
Initialize SRRIP state
Heartbeat CPU 0 instructions: 10000001 cycles: 2500100 heartbeat IPC: 3.99984 cumulative IPC: 3.99984 (Simulation time: 0 hr 0 min 18 sec) 

Warmup complete CPU 0 instructions: 10000001 cycles: 2500100 (Simulation time: 0 hr 0 min 18 sec) 

Heartbeat CPU 0 instructions: 20000004 cycles: 12137577 heartbeat IPC: 1.03762 cumulative IPC: 1.03762 (Simulation time: 0 hr 0 min 59 sec) 
Heartbeat CPU 0 instructions: 30000000 cycles: 21774170 heartbeat IPC: 1.03771 cumulative IPC: 1.03766 (Simulation time: 0 hr 1 min 39 sec) 
Heartbeat CPU 0 instructions: 40000002 cycles: 31416543 heartbeat IPC: 1.03709 cumulative IPC: 1.03747 (Simulation time: 0 hr 2 min 20 sec) 
Heartbeat CPU 0 instructions: 50000000 cycles: 47800463 heartbeat IPC: 0.610354 cumulative IPC: 0.882995 (Simulation time: 0 hr 3 min 27 sec) 
Heartbeat CPU 0 instructions: 60000000 cycles: 60290973 heartbeat IPC: 0.800608 cumulative IPC: 0.865188 (Simulation time: 0 hr 4 min 36 sec) 
Heartbeat CPU 0 instructions: 70000002 cycles: 76238738 heartbeat IPC: 0.627047 cumulative IPC: 0.813685 (Simulation time: 0 hr 5 min 36 sec) 
Heartbeat CPU 0 instructions: 80000004 cycles: 91954307 heartbeat IPC: 0.636312 cumulative IPC: 0.782523 (Simulation time: 0 hr 6 min 33 sec) 
Heartbeat CPU 0 instructions: 90000002 cycles: 107562626 heartbeat IPC: 0.640684 cumulative IPC: 0.761451 (Simulation time: 0 hr 7 min 29 sec) 
Heartbeat CPU 0 instructions: 100000004 cycles: 127571918 heartbeat IPC: 0.499768 cumulative IPC: 0.719587 (Simulation time: 0 hr 8 min 40 sec) 
Heartbeat CPU 0 instructions: 110000004 cycles: 145893908 heartbeat IPC: 0.545792 cumulative IPC: 0.69738 (Simulation time: 0 hr 9 min 46 sec) 
Finished CPU 0 instructions: 100000003 cycles: 143393808 cumulative IPC: 0.69738 (Simulation time: 0 hr 9 min 46 sec) 

ChampSim completed all CPUs

Region of Interest Statistics

CPU 0 cumulative IPC: 0.69738 instructions: 100000003 cycles: 143393808
cpu0_DTLB TOTAL     ACCESS:   16161446  HIT:   16130674  MISS:      30772
cpu0_DTLB LOAD      ACCESS:   14741380  HIT:   14717353  MISS:      24027
cpu0_DTLB RFO       ACCESS:    1420066  HIT:    1413321  MISS:       6745
cpu0_DTLB PREFETCH  ACCESS:          0  HIT:          0  MISS:          0
cpu0_DTLB WRITEBACK ACCESS:          0  HIT:          0  MISS:          0
cpu0_DTLB TRANSLATION ACCESS:          0  HIT:          0  MISS:          0
cpu0_DTLB PREFETCH  REQUESTED:          0  ISSUED:          0  USEFUL:          0  USELESS:          0
cpu0_DTLB AVERAGE MISS LATENCY: 146.438 cycles
cpu0_ITLB TOTAL     ACCESS:    6814495  HIT:    6814468  MISS:         27
cpu0_ITLB LOAD      ACCESS:    6814495  HIT:    6814468  MISS:         27
cpu0_ITLB RFO       ACCESS:          0  HIT:          0  MISS:          0
cpu0_ITLB PREFETCH  ACCESS:          0  HIT:          0  MISS:          0
cpu0_ITLB WRITEBACK ACCESS:          0  HIT:          0  MISS:          0
cpu0_ITLB TRANSLATION ACCESS:          0  HIT:          0  MISS:          0
cpu0_ITLB PREFETCH  REQUESTED:          0  ISSUED:          0  USEFUL:          0  USELESS:          0
cpu0_ITLB AVERAGE MISS LATENCY: 256.444 cycles
cpu0_L1I TOTAL     ACCESS:    1672572  HIT:    1672028  MISS:        544
cpu0_L1I LOAD      ACCESS:    1672572  HIT:    1672028  MISS:        544
cpu0_L1I RFO       ACCESS:          0  HIT:          0  MISS:          0
cpu0_L1I PREFETCH  ACCESS:          0  HIT:          0  MISS:          0
cpu0_L1I WRITEBACK ACCESS:          0  HIT:          0  MISS:          0
cpu0_L1I TRANSLATION ACCESS:          0  HIT:          0  MISS:          0
cpu0_L1I PREFETCH  REQUESTED:          0  ISSUED:          0  USEFUL:          0  USELESS:          0
cpu0_L1I AVERAGE MISS LATENCY: 332.033 cycles
cpu0_STLB TOTAL     ACCESS:      30799  HIT:      16569  MISS:      14230
cpu0_STLB LOAD      ACCESS:      24054  HIT:      13014  MISS:      11040
cpu0_STLB RFO       ACCESS:       6745  HIT:       3555  MISS:       3190
cpu0_STLB PREFETCH  ACCESS:          0  HIT:          0  MISS:          0
cpu0_STLB WRITEBACK ACCESS:          0  HIT:          0  MISS:          0
cpu0_STLB TRANSLATION ACCESS:          0  HIT:          0  MISS:          0
cpu0_STLB PREFETCH  REQUESTED:          0  ISSUED:          0  USEFUL:          0  USELESS:          0
cpu0_STLB AVERAGE MISS LATENCY: 297.676 cycles
cpu0_L1D TOTAL     ACCESS:   14665894  HIT:   13633731  MISS:    1032163
cpu0_L1D LOAD      ACCESS:   12378051  HIT:   11560578  MISS:     817473
cpu0_L1D RFO       ACCESS:    2274975  HIT:    2060859  MISS:     214116
cpu0_L1D PREFETCH  ACCESS:          0  HIT:          0  MISS:          0
cpu0_L1D WRITEBACK ACCESS:          0  HIT:          0  MISS:          0
cpu0_L1D TRANSLATION ACCESS:      12868  HIT:      12294  MISS:        574
cpu0_L1D PREFETCH  REQUESTED:          0  ISSUED:          0  USEFUL:          0  USELESS:          0
cpu0_L1D AVERAGE MISS LATENCY: 233.615 cycles
cpu0_L2C TOTAL     ACCESS:    1278988  HIT:     490147  MISS:     788841
cpu0_L2C LOAD      ACCESS:     818004  HIT:     229600  MISS:     588404
cpu0_L2C RFO       ACCESS:     214112  HIT:      13803  MISS:     200309
cpu0_L2C PREFETCH  ACCESS:          0  HIT:          0  MISS:          0
cpu0_L2C WRITEBACK ACCESS:     246298  HIT:     246214  MISS:         84
cpu0_L2C TRANSLATION ACCESS:        574  HIT:        530  MISS:         44
cpu0_L2C PREFETCH  REQUESTED:          0  ISSUED:          0  USEFUL:          0  USELESS:          0
cpu0_L2C AVERAGE MISS LATENCY: 291.494 cycles
LLC TOTAL     ACCESS:    1004436  HIT:     120530  MISS:     883906
LLC LOAD      ACCESS:     588404  HIT:      32487  MISS:     555917
LLC RFO       ACCESS:     200309  HIT:         67  MISS:     200242
LLC PREFETCH  ACCESS:          0  HIT:          0  MISS:          0
LLC WRITEBACK ACCESS:     215679  HIT:      87959  MISS:     127720
LLC TRANSLATION ACCESS:         44  HIT:         17  MISS:         27
LLC PREFETCH  REQUESTED:          0  ISSUED:          0  USEFUL:          0  USELESS:          0
LLC AVERAGE MISS LATENCY: 241.404 cycles

DRAM Statistics
 CHANNEL 0
 RQ ROW_BUFFER_HIT:      27084  ROW_BUFFER_MISS:     729079
 DBUS AVG_CONGESTED_CYCLE:    3.92907
 WQ ROW_BUFFER_HIT:      34984  ROW_BUFFER_MISS:     172270  FULL:          0


CPU 0 Branch Prediction Accuracy: 83.2596% MPKI: 18.9931 Average ROB Occupancy at Mispredict: 252.918
Branch type MPKI
BRANCH_DIRECT_JUMP: 0.0005
BRANCH_INDIRECT: 0
BRANCH_CONDITIONAL: 18.9921
BRANCH_DIRECT_CALL: 0.00023
BRANCH_INDIRECT_CALL: 0
BRANCH_RETURN: 0.00022

