
*** ChampSim Multicore Out-of-Order Simulator ***

Warmup Instructions: 10000000
Simulation Instructions: 100000000
Number of CPUs: 1
Off-chip DRAM Size: 4 GiB Channels: 1 Width: 64-bit Data Rate: 3200 MT/s

VirtualMemory physical capacity: 8588881920 num_ppages: 2096895
VirtualMemory page size: 4096 log2_page_size: 12

CPU 0 runs /datasets/cs240c-wi22-a00-public/data/Assignment2/xalancbmk_748B.trace.xz
CPU 0 Bimodal branch predictor
Basic BTB sets: 1024 ways: 8 indirect buffer size: 4096 RAS size: 64
5th iteration
No hysteresis, common rrpv
Initialize Hawkeye state
Initialize SRRIP state
Heartbeat CPU 0 instructions: 10000002 cycles: 2655102 heartbeat IPC: 3.76633 cumulative IPC: 3.76633 (Simulation time: 0 hr 0 min 23 sec) 

Warmup complete CPU 0 instructions: 10000002 cycles: 2655102 (Simulation time: 0 hr 0 min 23 sec) 

Heartbeat CPU 0 instructions: 20000001 cycles: 11808327 heartbeat IPC: 1.09251 cumulative IPC: 1.09251 (Simulation time: 0 hr 0 min 53 sec) 
Heartbeat CPU 0 instructions: 30000002 cycles: 21052389 heartbeat IPC: 1.08178 cumulative IPC: 1.08712 (Simulation time: 0 hr 1 min 23 sec) 
Heartbeat CPU 0 instructions: 40000002 cycles: 30437526 heartbeat IPC: 1.06551 cumulative IPC: 1.07982 (Simulation time: 0 hr 1 min 54 sec) 
Heartbeat CPU 0 instructions: 50000001 cycles: 38965247 heartbeat IPC: 1.17265 cumulative IPC: 1.10162 (Simulation time: 0 hr 2 min 26 sec) 
Heartbeat CPU 0 instructions: 60000003 cycles: 46095164 heartbeat IPC: 1.40254 cumulative IPC: 1.15101 (Simulation time: 0 hr 2 min 59 sec) 
Heartbeat CPU 0 instructions: 70000000 cycles: 52303944 heartbeat IPC: 1.61062 cumulative IPC: 1.20849 (Simulation time: 0 hr 3 min 33 sec) 
Heartbeat CPU 0 instructions: 80000003 cycles: 62945065 heartbeat IPC: 0.939751 cumulative IPC: 1.16106 (Simulation time: 0 hr 4 min 5 sec) 
Heartbeat CPU 0 instructions: 90000003 cycles: 71697616 heartbeat IPC: 1.14252 cumulative IPC: 1.15871 (Simulation time: 0 hr 4 min 36 sec) 
Heartbeat CPU 0 instructions: 100000003 cycles: 79716334 heartbeat IPC: 1.24708 cumulative IPC: 1.1679 (Simulation time: 0 hr 5 min 9 sec) 
Heartbeat CPU 0 instructions: 110000001 cycles: 86985609 heartbeat IPC: 1.37565 cumulative IPC: 1.18581 (Simulation time: 0 hr 5 min 42 sec) 
Finished CPU 0 instructions: 100000004 cycles: 84330508 cumulative IPC: 1.18581 (Simulation time: 0 hr 5 min 42 sec) 

ChampSim completed all CPUs

Region of Interest Statistics

CPU 0 cumulative IPC: 1.18581 instructions: 100000004 cycles: 84330508
cpu0_DTLB TOTAL     ACCESS:   20938723  HIT:   19923480  MISS:    1015243
cpu0_DTLB LOAD      ACCESS:   15325701  HIT:   14390885  MISS:     934816
cpu0_DTLB RFO       ACCESS:    5613022  HIT:    5532595  MISS:      80427
cpu0_DTLB PREFETCH  ACCESS:          0  HIT:          0  MISS:          0
cpu0_DTLB WRITEBACK ACCESS:          0  HIT:          0  MISS:          0
cpu0_DTLB TRANSLATION ACCESS:          0  HIT:          0  MISS:          0
cpu0_DTLB PREFETCH  REQUESTED:          0  ISSUED:          0  USEFUL:          0  USELESS:          0
cpu0_DTLB AVERAGE MISS LATENCY: 12.6528 cycles
cpu0_ITLB TOTAL     ACCESS:    8532963  HIT:    8417928  MISS:     115035
cpu0_ITLB LOAD      ACCESS:    8532963  HIT:    8417928  MISS:     115035
cpu0_ITLB RFO       ACCESS:          0  HIT:          0  MISS:          0
cpu0_ITLB PREFETCH  ACCESS:          0  HIT:          0  MISS:          0
cpu0_ITLB WRITEBACK ACCESS:          0  HIT:          0  MISS:          0
cpu0_ITLB TRANSLATION ACCESS:          0  HIT:          0  MISS:          0
cpu0_ITLB PREFETCH  REQUESTED:          0  ISSUED:          0  USEFUL:          0  USELESS:          0
cpu0_ITLB AVERAGE MISS LATENCY: 9.08145 cycles
cpu0_L1I TOTAL     ACCESS:    5572332  HIT:    5474316  MISS:      98016
cpu0_L1I LOAD      ACCESS:    5572332  HIT:    5474316  MISS:      98016
cpu0_L1I RFO       ACCESS:          0  HIT:          0  MISS:          0
cpu0_L1I PREFETCH  ACCESS:          0  HIT:          0  MISS:          0
cpu0_L1I WRITEBACK ACCESS:          0  HIT:          0  MISS:          0
cpu0_L1I TRANSLATION ACCESS:          0  HIT:          0  MISS:          0
cpu0_L1I PREFETCH  REQUESTED:          0  ISSUED:          0  USEFUL:          0  USELESS:          0
cpu0_L1I AVERAGE MISS LATENCY: 15.9774 cycles
cpu0_STLB TOTAL     ACCESS:    1130278  HIT:    1056267  MISS:      74011
cpu0_STLB LOAD      ACCESS:    1049851  HIT:    1003761  MISS:      46090
cpu0_STLB RFO       ACCESS:      80427  HIT:      52506  MISS:      27921
cpu0_STLB PREFETCH  ACCESS:          0  HIT:          0  MISS:          0
cpu0_STLB WRITEBACK ACCESS:          0  HIT:          0  MISS:          0
cpu0_STLB TRANSLATION ACCESS:          0  HIT:          0  MISS:          0
cpu0_STLB PREFETCH  REQUESTED:          0  ISSUED:          0  USEFUL:          0  USELESS:          0
cpu0_STLB AVERAGE MISS LATENCY: 50.0782 cycles
cpu0_L1D TOTAL     ACCESS:   22862214  HIT:   21387632  MISS:    1474582
cpu0_L1D LOAD      ACCESS:   13615519  HIT:   12402130  MISS:    1213389
cpu0_L1D RFO       ACCESS:    9179678  HIT:    8933463  MISS:     246215
cpu0_L1D PREFETCH  ACCESS:          0  HIT:          0  MISS:          0
cpu0_L1D WRITEBACK ACCESS:          0  HIT:          0  MISS:          0
cpu0_L1D TRANSLATION ACCESS:      67017  HIT:      52039  MISS:      14978
cpu0_L1D PREFETCH  REQUESTED:          0  ISSUED:          0  USEFUL:          0  USELESS:          0
cpu0_L1D AVERAGE MISS LATENCY: 47.4292 cycles
cpu0_L2C TOTAL     ACCESS:    1931781  HIT:    1587994  MISS:     343787
cpu0_L2C LOAD      ACCESS:    1311365  HIT:    1191280  MISS:     120085
cpu0_L2C RFO       ACCESS:     246203  HIT:      23088  MISS:     223115
cpu0_L2C PREFETCH  ACCESS:          0  HIT:          0  MISS:          0
cpu0_L2C WRITEBACK ACCESS:     359235  HIT:     358748  MISS:        487
cpu0_L2C TRANSLATION ACCESS:      14978  HIT:      14878  MISS:        100
cpu0_L2C PREFETCH  REQUESTED:          0  ISSUED:          0  USEFUL:          0  USELESS:          0
cpu0_L2C AVERAGE MISS LATENCY: 157.091 cycles
LLC TOTAL     ACCESS:     632525  HIT:     240294  MISS:     392231
LLC LOAD      ACCESS:     120085  HIT:      61524  MISS:      58561
LLC RFO       ACCESS:     223115  HIT:      26167  MISS:     196948
LLC PREFETCH  ACCESS:          0  HIT:          0  MISS:          0
LLC WRITEBACK ACCESS:     289225  HIT:     152553  MISS:     136672
LLC TRANSLATION ACCESS:        100  HIT:         50  MISS:         50
LLC PREFETCH  REQUESTED:          0  ISSUED:          0  USEFUL:          0  USELESS:          0
LLC AVERAGE MISS LATENCY: 119.308 cycles

DRAM Statistics
 CHANNEL 0
 RQ ROW_BUFFER_HIT:      99081  ROW_BUFFER_MISS:     156476
 DBUS AVG_CONGESTED_CYCLE:    3.94649
 WQ ROW_BUFFER_HIT:      19023  ROW_BUFFER_MISS:     203850  FULL:          0


CPU 0 Branch Prediction Accuracy: 96.4988% MPKI: 10.3974 Average ROB Occupancy at Mispredict: 40.223
Branch type MPKI
BRANCH_DIRECT_JUMP: 0.0002
BRANCH_INDIRECT: 0.35495
BRANCH_CONDITIONAL: 7.96079
BRANCH_DIRECT_CALL: 9e-05
BRANCH_INDIRECT_CALL: 0.45393
BRANCH_RETURN: 1.62746

