
*** ChampSim Multicore Out-of-Order Simulator ***

Warmup Instructions: 10000000
Simulation Instructions: 100000000
Number of CPUs: 1
Off-chip DRAM Size: 4 GiB Channels: 1 Width: 64-bit Data Rate: 3200 MT/s

VirtualMemory physical capacity: 8588881920 num_ppages: 2096895
VirtualMemory page size: 4096 log2_page_size: 12

CPU 0 runs /datasets/cs240c-wi22-a00-public/data/Assignment2/zeusmp_100B.trace.xz
CPU 0 Bimodal branch predictor
Basic BTB sets: 1024 ways: 8 indirect buffer size: 4096 RAS size: 64
5th iteration
No hysteresis, common rrpv
Initialize Hawkeye state
Initialize SRRIP state
Heartbeat CPU 0 instructions: 10000000 cycles: 2533557 heartbeat IPC: 3.94702 cumulative IPC: 3.94702 (Simulation time: 0 hr 0 min 18 sec) 

Warmup complete CPU 0 instructions: 10000004 cycles: 2533558 (Simulation time: 0 hr 0 min 18 sec) 

Heartbeat CPU 0 instructions: 20000003 cycles: 8020654 heartbeat IPC: 1.82246 cumulative IPC: 1.82246 (Simulation time: 0 hr 0 min 53 sec) 
Heartbeat CPU 0 instructions: 30000000 cycles: 13950763 heartbeat IPC: 1.68631 cumulative IPC: 1.75174 (Simulation time: 0 hr 1 min 30 sec) 
Heartbeat CPU 0 instructions: 40000004 cycles: 19875567 heartbeat IPC: 1.68782 cumulative IPC: 1.7299 (Simulation time: 0 hr 2 min 7 sec) 
Heartbeat CPU 0 instructions: 50000001 cycles: 25767511 heartbeat IPC: 1.69723 cumulative IPC: 1.72162 (Simulation time: 0 hr 2 min 44 sec) 
Heartbeat CPU 0 instructions: 60000004 cycles: 31681246 heartbeat IPC: 1.69098 cumulative IPC: 1.7154 (Simulation time: 0 hr 3 min 20 sec) 
Heartbeat CPU 0 instructions: 70000001 cycles: 37563818 heartbeat IPC: 1.69994 cumulative IPC: 1.7128 (Simulation time: 0 hr 3 min 54 sec) 
Heartbeat CPU 0 instructions: 80000001 cycles: 43477191 heartbeat IPC: 1.69108 cumulative IPC: 1.70967 (Simulation time: 0 hr 4 min 29 sec) 
Heartbeat CPU 0 instructions: 90000000 cycles: 49391128 heartbeat IPC: 1.69092 cumulative IPC: 1.7073 (Simulation time: 0 hr 5 min 3 sec) 
Heartbeat CPU 0 instructions: 100000000 cycles: 55277290 heartbeat IPC: 1.6989 cumulative IPC: 1.70636 (Simulation time: 0 hr 5 min 38 sec) 
Heartbeat CPU 0 instructions: 110000003 cycles: 61195215 heartbeat IPC: 1.68978 cumulative IPC: 1.70469 (Simulation time: 0 hr 6 min 13 sec) 
Finished CPU 0 instructions: 100000004 cycles: 58661658 cumulative IPC: 1.70469 (Simulation time: 0 hr 6 min 13 sec) 

ChampSim completed all CPUs

Region of Interest Statistics

CPU 0 cumulative IPC: 1.70469 instructions: 100000004 cycles: 58661658
cpu0_DTLB TOTAL     ACCESS:   16444335  HIT:   12279778  MISS:    4164557
cpu0_DTLB LOAD      ACCESS:   11965208  HIT:    9307896  MISS:    2657312
cpu0_DTLB RFO       ACCESS:    4479127  HIT:    2971882  MISS:    1507245
cpu0_DTLB PREFETCH  ACCESS:          0  HIT:          0  MISS:          0
cpu0_DTLB WRITEBACK ACCESS:          0  HIT:          0  MISS:          0
cpu0_DTLB TRANSLATION ACCESS:          0  HIT:          0  MISS:          0
cpu0_DTLB PREFETCH  REQUESTED:          0  ISSUED:          0  USEFUL:          0  USELESS:          0
cpu0_DTLB AVERAGE MISS LATENCY: 10.4025 cycles
cpu0_ITLB TOTAL     ACCESS:    2227439  HIT:    2227438  MISS:          1
cpu0_ITLB LOAD      ACCESS:    2227439  HIT:    2227438  MISS:          1
cpu0_ITLB RFO       ACCESS:          0  HIT:          0  MISS:          0
cpu0_ITLB PREFETCH  ACCESS:          0  HIT:          0  MISS:          0
cpu0_ITLB WRITEBACK ACCESS:          0  HIT:          0  MISS:          0
cpu0_ITLB TRANSLATION ACCESS:          0  HIT:          0  MISS:          0
cpu0_ITLB PREFETCH  REQUESTED:          0  ISSUED:          0  USEFUL:          0  USELESS:          0
cpu0_ITLB AVERAGE MISS LATENCY: 411 cycles
cpu0_L1I TOTAL     ACCESS:    3117515  HIT:    3117464  MISS:         51
cpu0_L1I LOAD      ACCESS:    3117515  HIT:    3117464  MISS:         51
cpu0_L1I RFO       ACCESS:          0  HIT:          0  MISS:          0
cpu0_L1I PREFETCH  ACCESS:          0  HIT:          0  MISS:          0
cpu0_L1I WRITEBACK ACCESS:          0  HIT:          0  MISS:          0
cpu0_L1I TRANSLATION ACCESS:          0  HIT:          0  MISS:          0
cpu0_L1I PREFETCH  REQUESTED:          0  ISSUED:          0  USEFUL:          0  USELESS:          0
cpu0_L1I AVERAGE MISS LATENCY: 315.941 cycles
cpu0_STLB TOTAL     ACCESS:    4164558  HIT:    4156119  MISS:       8439
cpu0_STLB LOAD      ACCESS:    2657313  HIT:    2652150  MISS:       5163
cpu0_STLB RFO       ACCESS:    1507245  HIT:    1503969  MISS:       3276
cpu0_STLB PREFETCH  ACCESS:          0  HIT:          0  MISS:          0
cpu0_STLB WRITEBACK ACCESS:          0  HIT:          0  MISS:          0
cpu0_STLB TRANSLATION ACCESS:          0  HIT:          0  MISS:          0
cpu0_STLB PREFETCH  REQUESTED:          0  ISSUED:          0  USEFUL:          0  USELESS:          0
cpu0_STLB AVERAGE MISS LATENCY: 556.367 cycles
cpu0_L1D TOTAL     ACCESS:   19020680  HIT:   13986932  MISS:    5033748
cpu0_L1D LOAD      ACCESS:   12125675  HIT:    8891772  MISS:    3233903
cpu0_L1D RFO       ACCESS:    6886684  HIT:    5094536  MISS:    1792148
cpu0_L1D PREFETCH  ACCESS:          0  HIT:          0  MISS:          0
cpu0_L1D WRITEBACK ACCESS:          0  HIT:          0  MISS:          0
cpu0_L1D TRANSLATION ACCESS:       8321  HIT:        624  MISS:       7697
cpu0_L1D PREFETCH  REQUESTED:          0  ISSUED:          0  USEFUL:          0  USELESS:          0
cpu0_L1D AVERAGE MISS LATENCY: 86.4947 cycles
cpu0_L2C TOTAL     ACCESS:    6854470  HIT:    6266834  MISS:     587636
cpu0_L2C LOAD      ACCESS:    3233681  HIT:    2839605  MISS:     394076
cpu0_L2C RFO       ACCESS:    1790658  HIT:    1597396  MISS:     193262
cpu0_L2C PREFETCH  ACCESS:          0  HIT:          0  MISS:          0
cpu0_L2C WRITEBACK ACCESS:    1822434  HIT:    1822142  MISS:        292
cpu0_L2C TRANSLATION ACCESS:       7697  HIT:       7691  MISS:          6
cpu0_L2C PREFETCH  REQUESTED:          0  ISSUED:          0  USEFUL:          0  USELESS:          0
cpu0_L2C AVERAGE MISS LATENCY: 645.841 cycles
LLC TOTAL     ACCESS:     780686  HIT:      98362  MISS:     682324
LLC LOAD      ACCESS:     394076  HIT:      87251  MISS:     306825
LLC RFO       ACCESS:     193262  HIT:          0  MISS:     193262
LLC PREFETCH  ACCESS:          0  HIT:          0  MISS:          0
LLC WRITEBACK ACCESS:     193342  HIT:      11111  MISS:     182231
LLC TRANSLATION ACCESS:          6  HIT:          0  MISS:          6
LLC PREFETCH  REQUESTED:          0  ISSUED:          0  USEFUL:          0  USELESS:          0
LLC AVERAGE MISS LATENCY: 538.139 cycles

DRAM Statistics
 CHANNEL 0
 RQ ROW_BUFFER_HIT:        173  ROW_BUFFER_MISS:     499920
 DBUS AVG_CONGESTED_CYCLE:    3.99923
 WQ ROW_BUFFER_HIT:        341  ROW_BUFFER_MISS:     199845  FULL:          0


CPU 0 Branch Prediction Accuracy: 99.0158% MPKI: 0.52371 Average ROB Occupancy at Mispredict: 235.812
Branch type MPKI
BRANCH_DIRECT_JUMP: 1e-05
BRANCH_INDIRECT: 0
BRANCH_CONDITIONAL: 0.5237
BRANCH_DIRECT_CALL: 0
BRANCH_INDIRECT_CALL: 0
BRANCH_RETURN: 0

