
*** ChampSim Multicore Out-of-Order Simulator ***

Warmup Instructions: 10000000
Simulation Instructions: 100000000
Number of CPUs: 1
Off-chip DRAM Size: 4 GiB Channels: 1 Width: 64-bit Data Rate: 3200 MT/s

VirtualMemory physical capacity: 8588881920 num_ppages: 2096895
VirtualMemory page size: 4096 log2_page_size: 12

CPU 0 runs /datasets/cs240c-wi22-a00-public/data/Assignment2/bwaves_1861B.trace.xz
CPU 0 Bimodal branch predictor
Basic BTB sets: 1024 ways: 8 indirect buffer size: 4096 RAS size: 64
5th iteration
No hysteresis, common rrpv
Initialize Hawkeye state
Initialize SRRIP state
Heartbeat CPU 0 instructions: 10000002 cycles: 4727892 heartbeat IPC: 2.11511 cumulative IPC: 2.11511 (Simulation time: 0 hr 0 min 49 sec) 

Warmup complete CPU 0 instructions: 10000002 cycles: 4727892 (Simulation time: 0 hr 0 min 49 sec) 

Heartbeat CPU 0 instructions: 20000002 cycles: 39073961 heartbeat IPC: 0.291154 cumulative IPC: 0.291154 (Simulation time: 0 hr 2 min 38 sec) 
Heartbeat CPU 0 instructions: 30000004 cycles: 73254886 heartbeat IPC: 0.292561 cumulative IPC: 0.291856 (Simulation time: 0 hr 4 min 27 sec) 
Heartbeat CPU 0 instructions: 40000002 cycles: 107416607 heartbeat IPC: 0.292725 cumulative IPC: 0.292145 (Simulation time: 0 hr 6 min 13 sec) 
Heartbeat CPU 0 instructions: 50000003 cycles: 141580617 heartbeat IPC: 0.292706 cumulative IPC: 0.292285 (Simulation time: 0 hr 7 min 58 sec) 
Heartbeat CPU 0 instructions: 60000000 cycles: 175745519 heartbeat IPC: 0.292698 cumulative IPC: 0.292368 (Simulation time: 0 hr 9 min 44 sec) 
Heartbeat CPU 0 instructions: 70000001 cycles: 209915702 heartbeat IPC: 0.292653 cumulative IPC: 0.292415 (Simulation time: 0 hr 11 min 31 sec) 
Heartbeat CPU 0 instructions: 80000001 cycles: 244078847 heartbeat IPC: 0.292713 cumulative IPC: 0.292458 (Simulation time: 0 hr 13 min 17 sec) 
Heartbeat CPU 0 instructions: 90000001 cycles: 271648512 heartbeat IPC: 0.362718 cumulative IPC: 0.299715 (Simulation time: 0 hr 14 min 48 sec) 
Heartbeat CPU 0 instructions: 100000000 cycles: 285830791 heartbeat IPC: 0.705105 cumulative IPC: 0.320167 (Simulation time: 0 hr 15 min 50 sec) 
Heartbeat CPU 0 instructions: 110000001 cycles: 306145078 heartbeat IPC: 0.492264 cumulative IPC: 0.331766 (Simulation time: 0 hr 17 min 9 sec) 
Finished CPU 0 instructions: 100000004 cycles: 301417187 cumulative IPC: 0.331766 (Simulation time: 0 hr 17 min 9 sec) 

ChampSim completed all CPUs

Region of Interest Statistics

CPU 0 cumulative IPC: 0.331766 instructions: 100000004 cycles: 301417187
cpu0_DTLB TOTAL     ACCESS:   32236610  HIT:   32200018  MISS:      36592
cpu0_DTLB LOAD      ACCESS:   30508828  HIT:   30472937  MISS:      35891
cpu0_DTLB RFO       ACCESS:    1727782  HIT:    1727081  MISS:        701
cpu0_DTLB PREFETCH  ACCESS:          0  HIT:          0  MISS:          0
cpu0_DTLB WRITEBACK ACCESS:          0  HIT:          0  MISS:          0
cpu0_DTLB TRANSLATION ACCESS:          0  HIT:          0  MISS:          0
cpu0_DTLB PREFETCH  REQUESTED:          0  ISSUED:          0  USEFUL:          0  USELESS:          0
cpu0_DTLB AVERAGE MISS LATENCY: 234.401 cycles
cpu0_ITLB TOTAL     ACCESS:    9876510  HIT:    9876508  MISS:          2
cpu0_ITLB LOAD      ACCESS:    9876510  HIT:    9876508  MISS:          2
cpu0_ITLB RFO       ACCESS:          0  HIT:          0  MISS:          0
cpu0_ITLB PREFETCH  ACCESS:          0  HIT:          0  MISS:          0
cpu0_ITLB WRITEBACK ACCESS:          0  HIT:          0  MISS:          0
cpu0_ITLB TRANSLATION ACCESS:          0  HIT:          0  MISS:          0
cpu0_ITLB PREFETCH  REQUESTED:          0  ISSUED:          0  USEFUL:          0  USELESS:          0
cpu0_ITLB AVERAGE MISS LATENCY: 320 cycles
cpu0_L1I TOTAL     ACCESS:         28  HIT:         12  MISS:         16
cpu0_L1I LOAD      ACCESS:         28  HIT:         12  MISS:         16
cpu0_L1I RFO       ACCESS:          0  HIT:          0  MISS:          0
cpu0_L1I PREFETCH  ACCESS:          0  HIT:          0  MISS:          0
cpu0_L1I WRITEBACK ACCESS:          0  HIT:          0  MISS:          0
cpu0_L1I TRANSLATION ACCESS:          0  HIT:          0  MISS:          0
cpu0_L1I PREFETCH  REQUESTED:          0  ISSUED:          0  USEFUL:          0  USELESS:          0
cpu0_L1I AVERAGE MISS LATENCY: 213.688 cycles
cpu0_STLB TOTAL     ACCESS:      36594  HIT:       1139  MISS:      35455
cpu0_STLB LOAD      ACCESS:      35893  HIT:       1139  MISS:      34754
cpu0_STLB RFO       ACCESS:        701  HIT:          0  MISS:        701
cpu0_STLB PREFETCH  ACCESS:          0  HIT:          0  MISS:          0
cpu0_STLB WRITEBACK ACCESS:          0  HIT:          0  MISS:          0
cpu0_STLB TRANSLATION ACCESS:          0  HIT:          0  MISS:          0
cpu0_STLB PREFETCH  REQUESTED:          0  ISSUED:          0  USEFUL:          0  USELESS:          0
cpu0_STLB AVERAGE MISS LATENCY: 232.153 cycles
cpu0_L1D TOTAL     ACCESS:   27670198  HIT:   25258137  MISS:    2412061
cpu0_L1D LOAD      ACCESS:   24966473  HIT:   22601225  MISS:    2365248
cpu0_L1D RFO       ACCESS:    2668270  HIT:    2623399  MISS:      44871
cpu0_L1D PREFETCH  ACCESS:          0  HIT:          0  MISS:          0
cpu0_L1D WRITEBACK ACCESS:          0  HIT:          0  MISS:          0
cpu0_L1D TRANSLATION ACCESS:      35455  HIT:      33513  MISS:       1942
cpu0_L1D PREFETCH  REQUESTED:          0  ISSUED:          0  USEFUL:          0  USELESS:          0
cpu0_L1D AVERAGE MISS LATENCY: 991.607 cycles
cpu0_L2C TOTAL     ACCESS:    2572723  HIT:     254855  MISS:    2317868
cpu0_L2C LOAD      ACCESS:    2365264  HIT:      92292  MISS:    2272972
cpu0_L2C RFO       ACCESS:      44871  HIT:          0  MISS:      44871
cpu0_L2C PREFETCH  ACCESS:          0  HIT:          0  MISS:          0
cpu0_L2C WRITEBACK ACCESS:     160646  HIT:     160641  MISS:          5
cpu0_L2C TRANSLATION ACCESS:       1942  HIT:       1922  MISS:         20
cpu0_L2C PREFETCH  REQUESTED:          0  ISSUED:          0  USEFUL:          0  USELESS:          0
cpu0_L2C AVERAGE MISS LATENCY: 1020.08 cycles
LLC TOTAL     ACCESS:    2473542  HIT:      94414  MISS:    2379128
LLC LOAD      ACCESS:    2272972  HIT:      88377  MISS:    2184595
LLC RFO       ACCESS:      44871  HIT:          0  MISS:      44871
LLC PREFETCH  ACCESS:          0  HIT:          0  MISS:          0
LLC WRITEBACK ACCESS:     155679  HIT:       6035  MISS:     149644
LLC TRANSLATION ACCESS:         20  HIT:          2  MISS:         18
LLC PREFETCH  REQUESTED:          0  ISSUED:          0  USEFUL:          0  USELESS:          0
LLC AVERAGE MISS LATENCY: 973.35 cycles

DRAM Statistics
 CHANNEL 0
 RQ ROW_BUFFER_HIT:      19759  ROW_BUFFER_MISS:    2209679
 DBUS AVG_CONGESTED_CYCLE:    3.96387
 WQ ROW_BUFFER_HIT:      21096  ROW_BUFFER_MISS:     132250  FULL:          0


CPU 0 Branch Prediction Accuracy: 70.4481% MPKI: 17.8647 Average ROB Occupancy at Mispredict: 236.267
Branch type MPKI
BRANCH_DIRECT_JUMP: 2e-05
BRANCH_INDIRECT: 0
BRANCH_CONDITIONAL: 17.8646
BRANCH_DIRECT_CALL: 0
BRANCH_INDIRECT_CALL: 0
BRANCH_RETURN: 1e-05

