
*** ChampSim Multicore Out-of-Order Simulator ***

Warmup Instructions: 10000000
Simulation Instructions: 100000000
Number of CPUs: 1
Off-chip DRAM Size: 4 GiB Channels: 1 Width: 64-bit Data Rate: 3200 MT/s

VirtualMemory physical capacity: 8588881920 num_ppages: 2096895
VirtualMemory page size: 4096 log2_page_size: 12

CPU 0 runs /datasets/cs240c-wi22-a00-public/data/Assignment2/GemsFDTD_712B.trace.xz
CPU 0 Bimodal branch predictor
Basic BTB sets: 1024 ways: 8 indirect buffer size: 4096 RAS size: 64
5th iteration
No hysteresis, common rrpv
Initialize Hawkeye state
Initialize SRRIP state
Heartbeat CPU 0 instructions: 10000003 cycles: 4479620 heartbeat IPC: 2.23233 cumulative IPC: 2.23233 (Simulation time: 0 hr 0 min 44 sec) 

Warmup complete CPU 0 instructions: 10000003 cycles: 4479620 (Simulation time: 0 hr 0 min 44 sec) 

Heartbeat CPU 0 instructions: 20000000 cycles: 44143383 heartbeat IPC: 0.252119 cumulative IPC: 0.252119 (Simulation time: 0 hr 3 min 38 sec) 
Heartbeat CPU 0 instructions: 30000001 cycles: 83543825 heartbeat IPC: 0.253804 cumulative IPC: 0.252959 (Simulation time: 0 hr 6 min 34 sec) 
Heartbeat CPU 0 instructions: 40000004 cycles: 123608683 heartbeat IPC: 0.249595 cumulative IPC: 0.251828 (Simulation time: 0 hr 9 min 31 sec) 
Heartbeat CPU 0 instructions: 50000002 cycles: 163141155 heartbeat IPC: 0.252957 cumulative IPC: 0.252109 (Simulation time: 0 hr 12 min 25 sec) 
Heartbeat CPU 0 instructions: 60000003 cycles: 203326701 heartbeat IPC: 0.248846 cumulative IPC: 0.251449 (Simulation time: 0 hr 15 min 22 sec) 
Heartbeat CPU 0 instructions: 70000002 cycles: 243455152 heartbeat IPC: 0.2492 cumulative IPC: 0.251072 (Simulation time: 0 hr 18 min 17 sec) 
Heartbeat CPU 0 instructions: 80000000 cycles: 278365221 heartbeat IPC: 0.28645 cumulative IPC: 0.255581 (Simulation time: 0 hr 20 min 14 sec) 
Heartbeat CPU 0 instructions: 90000000 cycles: 313284736 heartbeat IPC: 0.286373 cumulative IPC: 0.259063 (Simulation time: 0 hr 22 min 8 sec) 
Heartbeat CPU 0 instructions: 100000001 cycles: 346462920 heartbeat IPC: 0.301403 cumulative IPC: 0.263171 (Simulation time: 0 hr 23 min 57 sec) 
Heartbeat CPU 0 instructions: 110000002 cycles: 381269820 heartbeat IPC: 0.287299 cumulative IPC: 0.2654 (Simulation time: 0 hr 25 min 49 sec) 
Finished CPU 0 instructions: 100000004 cycles: 376790201 cumulative IPC: 0.2654 (Simulation time: 0 hr 25 min 49 sec) 

ChampSim completed all CPUs

Region of Interest Statistics

CPU 0 cumulative IPC: 0.2654 instructions: 100000004 cycles: 376790201
cpu0_DTLB TOTAL     ACCESS:   29841811  HIT:   29639165  MISS:     202646
cpu0_DTLB LOAD      ACCESS:   23899594  HIT:   23696948  MISS:     202646
cpu0_DTLB RFO       ACCESS:    5942217  HIT:    5942217  MISS:          0
cpu0_DTLB PREFETCH  ACCESS:          0  HIT:          0  MISS:          0
cpu0_DTLB WRITEBACK ACCESS:          0  HIT:          0  MISS:          0
cpu0_DTLB TRANSLATION ACCESS:          0  HIT:          0  MISS:          0
cpu0_DTLB PREFETCH  REQUESTED:          0  ISSUED:          0  USEFUL:          0  USELESS:          0
cpu0_DTLB AVERAGE MISS LATENCY: 158.115 cycles
cpu0_ITLB TOTAL     ACCESS:    1685591  HIT:    1685585  MISS:          6
cpu0_ITLB LOAD      ACCESS:    1685591  HIT:    1685585  MISS:          6
cpu0_ITLB RFO       ACCESS:          0  HIT:          0  MISS:          0
cpu0_ITLB PREFETCH  ACCESS:          0  HIT:          0  MISS:          0
cpu0_ITLB WRITEBACK ACCESS:          0  HIT:          0  MISS:          0
cpu0_ITLB TRANSLATION ACCESS:          0  HIT:          0  MISS:          0
cpu0_ITLB PREFETCH  REQUESTED:          0  ISSUED:          0  USEFUL:          0  USELESS:          0
cpu0_ITLB AVERAGE MISS LATENCY: 251.333 cycles
cpu0_L1I TOTAL     ACCESS:    3165730  HIT:    3165635  MISS:         95
cpu0_L1I LOAD      ACCESS:    3165730  HIT:    3165635  MISS:         95
cpu0_L1I RFO       ACCESS:          0  HIT:          0  MISS:          0
cpu0_L1I PREFETCH  ACCESS:          0  HIT:          0  MISS:          0
cpu0_L1I WRITEBACK ACCESS:          0  HIT:          0  MISS:          0
cpu0_L1I TRANSLATION ACCESS:          0  HIT:          0  MISS:          0
cpu0_L1I PREFETCH  REQUESTED:          0  ISSUED:          0  USEFUL:          0  USELESS:          0
cpu0_L1I AVERAGE MISS LATENCY: 422.453 cycles
cpu0_STLB TOTAL     ACCESS:     202652  HIT:      49544  MISS:     153108
cpu0_STLB LOAD      ACCESS:     202652  HIT:      49544  MISS:     153108
cpu0_STLB RFO       ACCESS:          0  HIT:          0  MISS:          0
cpu0_STLB PREFETCH  ACCESS:          0  HIT:          0  MISS:          0
cpu0_STLB WRITEBACK ACCESS:          0  HIT:          0  MISS:          0
cpu0_STLB TRANSLATION ACCESS:          0  HIT:          0  MISS:          0
cpu0_STLB PREFETCH  REQUESTED:          0  ISSUED:          0  USEFUL:          0  USELESS:          0
cpu0_STLB AVERAGE MISS LATENCY: 197.304 cycles
cpu0_L1D TOTAL     ACCESS:   29757665  HIT:   26409606  MISS:    3348059
cpu0_L1D LOAD      ACCESS:   18525730  HIT:   15179874  MISS:    3345856
cpu0_L1D RFO       ACCESS:   11079382  HIT:   11079362  MISS:         20
cpu0_L1D PREFETCH  ACCESS:          0  HIT:          0  MISS:          0
cpu0_L1D WRITEBACK ACCESS:          0  HIT:          0  MISS:          0
cpu0_L1D TRANSLATION ACCESS:     152553  HIT:     150370  MISS:       2183
cpu0_L1D PREFETCH  REQUESTED:          0  ISSUED:          0  USEFUL:          0  USELESS:          0
cpu0_L1D AVERAGE MISS LATENCY: 676.848 cycles
cpu0_L2C TOTAL     ACCESS:    4725125  HIT:    1561836  MISS:    3163289
cpu0_L2C LOAD      ACCESS:    3345951  HIT:     182773  MISS:    3163178
cpu0_L2C RFO       ACCESS:         20  HIT:          0  MISS:         20
cpu0_L2C PREFETCH  ACCESS:          0  HIT:          0  MISS:          0
cpu0_L2C WRITEBACK ACCESS:    1376971  HIT:    1376967  MISS:          4
cpu0_L2C TRANSLATION ACCESS:       2183  HIT:       2096  MISS:         87
cpu0_L2C PREFETCH  REQUESTED:          0  ISSUED:          0  USEFUL:          0  USELESS:          0
cpu0_L2C AVERAGE MISS LATENCY: 704.729 cycles
LLC TOTAL     ACCESS:    4538795  HIT:     687158  MISS:    3851637
LLC LOAD      ACCESS:    3163178  HIT:     589272  MISS:    2573906
LLC RFO       ACCESS:         20  HIT:          0  MISS:         20
LLC PREFETCH  ACCESS:          0  HIT:          0  MISS:          0
LLC WRITEBACK ACCESS:    1375510  HIT:      97844  MISS:    1277666
LLC TRANSLATION ACCESS:         87  HIT:         42  MISS:         45
LLC PREFETCH  REQUESTED:          0  ISSUED:          0  USEFUL:          0  USELESS:          0
LLC AVERAGE MISS LATENCY: 561.536 cycles

DRAM Statistics
 CHANNEL 0
 RQ ROW_BUFFER_HIT:       8814  ROW_BUFFER_MISS:    2565157
 DBUS AVG_CONGESTED_CYCLE:    3.99779
 WQ ROW_BUFFER_HIT:      18436  ROW_BUFFER_MISS:    1347787  FULL:          0


CPU 0 Branch Prediction Accuracy: 90.9863% MPKI: 1.62566 Average ROB Occupancy at Mispredict: 227.413
Branch type MPKI
BRANCH_DIRECT_JUMP: 5e-05
BRANCH_INDIRECT: 0
BRANCH_CONDITIONAL: 1.62559
BRANCH_DIRECT_CALL: 1e-05
BRANCH_INDIRECT_CALL: 0
BRANCH_RETURN: 1e-05

