
*** ChampSim Multicore Out-of-Order Simulator ***

Warmup Instructions: 10000000
Simulation Instructions: 100000000
Number of CPUs: 1
Off-chip DRAM Size: 4 GiB Channels: 1 Width: 64-bit Data Rate: 3200 MT/s

VirtualMemory physical capacity: 8588881920 num_ppages: 2096895
VirtualMemory page size: 4096 log2_page_size: 12

CPU 0 runs /datasets/cs240c-wi22-a00-public/data/Assignment2/h264ref_351B.trace.xz
CPU 0 Bimodal branch predictor
Basic BTB sets: 1024 ways: 8 indirect buffer size: 4096 RAS size: 64
5th iteration
No hysteresis, common rrpv
Initialize Hawkeye state
Initialize SRRIP state
Heartbeat CPU 0 instructions: 10000003 cycles: 3499507 heartbeat IPC: 2.85755 cumulative IPC: 2.85755 (Simulation time: 0 hr 0 min 35 sec) 

Warmup complete CPU 0 instructions: 10000003 cycles: 3499507 (Simulation time: 0 hr 0 min 35 sec) 

Heartbeat CPU 0 instructions: 20000000 cycles: 12239721 heartbeat IPC: 1.14414 cumulative IPC: 1.14414 (Simulation time: 0 hr 1 min 6 sec) 
Heartbeat CPU 0 instructions: 30000000 cycles: 18591104 heartbeat IPC: 1.57446 cumulative IPC: 1.32524 (Simulation time: 0 hr 1 min 49 sec) 
Heartbeat CPU 0 instructions: 40000001 cycles: 24742533 heartbeat IPC: 1.62564 cumulative IPC: 1.41223 (Simulation time: 0 hr 2 min 32 sec) 
Heartbeat CPU 0 instructions: 50000000 cycles: 31436651 heartbeat IPC: 1.49385 cumulative IPC: 1.43179 (Simulation time: 0 hr 3 min 6 sec) 
Heartbeat CPU 0 instructions: 60000003 cycles: 39229872 heartbeat IPC: 1.28317 cumulative IPC: 1.39937 (Simulation time: 0 hr 3 min 38 sec) 
Heartbeat CPU 0 instructions: 70000001 cycles: 45343121 heartbeat IPC: 1.63579 cumulative IPC: 1.43391 (Simulation time: 0 hr 4 min 22 sec) 
Heartbeat CPU 0 instructions: 80000004 cycles: 51309160 heartbeat IPC: 1.67615 cumulative IPC: 1.46414 (Simulation time: 0 hr 5 min 4 sec) 
Heartbeat CPU 0 instructions: 90000004 cycles: 58174786 heartbeat IPC: 1.45653 cumulative IPC: 1.46318 (Simulation time: 0 hr 5 min 35 sec) 
Heartbeat CPU 0 instructions: 100000001 cycles: 65592304 heartbeat IPC: 1.34816 cumulative IPC: 1.44944 (Simulation time: 0 hr 6 min 11 sec) 
Heartbeat CPU 0 instructions: 110000001 cycles: 71687854 heartbeat IPC: 1.64054 cumulative IPC: 1.46653 (Simulation time: 0 hr 6 min 54 sec) 
Finished CPU 0 instructions: 100000003 cycles: 68188348 cumulative IPC: 1.46653 (Simulation time: 0 hr 6 min 54 sec) 

ChampSim completed all CPUs

Region of Interest Statistics

CPU 0 cumulative IPC: 1.46653 instructions: 100000003 cycles: 68188348
cpu0_DTLB TOTAL     ACCESS:   22001259  HIT:   21965369  MISS:      35890
cpu0_DTLB LOAD      ACCESS:   18624643  HIT:   18591860  MISS:      32783
cpu0_DTLB RFO       ACCESS:    3376616  HIT:    3373509  MISS:       3107
cpu0_DTLB PREFETCH  ACCESS:          0  HIT:          0  MISS:          0
cpu0_DTLB WRITEBACK ACCESS:          0  HIT:          0  MISS:          0
cpu0_DTLB TRANSLATION ACCESS:          0  HIT:          0  MISS:          0
cpu0_DTLB PREFETCH  REQUESTED:          0  ISSUED:          0  USEFUL:          0  USELESS:          0
cpu0_DTLB AVERAGE MISS LATENCY: 12.356 cycles
cpu0_ITLB TOTAL     ACCESS:    6583644  HIT:    6583184  MISS:        460
cpu0_ITLB LOAD      ACCESS:    6583644  HIT:    6583184  MISS:        460
cpu0_ITLB RFO       ACCESS:          0  HIT:          0  MISS:          0
cpu0_ITLB PREFETCH  ACCESS:          0  HIT:          0  MISS:          0
cpu0_ITLB WRITEBACK ACCESS:          0  HIT:          0  MISS:          0
cpu0_ITLB TRANSLATION ACCESS:          0  HIT:          0  MISS:          0
cpu0_ITLB PREFETCH  REQUESTED:          0  ISSUED:          0  USEFUL:          0  USELESS:          0
cpu0_ITLB AVERAGE MISS LATENCY: 26.2174 cycles
cpu0_L1I TOTAL     ACCESS:    4924953  HIT:    4899539  MISS:      25414
cpu0_L1I LOAD      ACCESS:    4924953  HIT:    4899539  MISS:      25414
cpu0_L1I RFO       ACCESS:          0  HIT:          0  MISS:          0
cpu0_L1I PREFETCH  ACCESS:          0  HIT:          0  MISS:          0
cpu0_L1I WRITEBACK ACCESS:          0  HIT:          0  MISS:          0
cpu0_L1I TRANSLATION ACCESS:          0  HIT:          0  MISS:          0
cpu0_L1I PREFETCH  REQUESTED:          0  ISSUED:          0  USEFUL:          0  USELESS:          0
cpu0_L1I AVERAGE MISS LATENCY: 39.8855 cycles
cpu0_STLB TOTAL     ACCESS:      36350  HIT:      35218  MISS:       1132
cpu0_STLB LOAD      ACCESS:      33243  HIT:      32343  MISS:        900
cpu0_STLB RFO       ACCESS:       3107  HIT:       2875  MISS:        232
cpu0_STLB PREFETCH  ACCESS:          0  HIT:          0  MISS:          0
cpu0_STLB WRITEBACK ACCESS:          0  HIT:          0  MISS:          0
cpu0_STLB TRANSLATION ACCESS:          0  HIT:          0  MISS:          0
cpu0_STLB PREFETCH  REQUESTED:          0  ISSUED:          0  USEFUL:          0  USELESS:          0
cpu0_STLB AVERAGE MISS LATENCY: 112.565 cycles
cpu0_L1D TOTAL     ACCESS:   23785012  HIT:   23470672  MISS:     314340
cpu0_L1D LOAD      ACCESS:   17650175  HIT:   17423281  MISS:     226894
cpu0_L1D RFO       ACCESS:    6133741  HIT:    6046537  MISS:      87204
cpu0_L1D PREFETCH  ACCESS:          0  HIT:          0  MISS:          0
cpu0_L1D WRITEBACK ACCESS:          0  HIT:          0  MISS:          0
cpu0_L1D TRANSLATION ACCESS:       1096  HIT:        854  MISS:        242
cpu0_L1D PREFETCH  REQUESTED:          0  ISSUED:          0  USEFUL:          0  USELESS:          0
cpu0_L1D AVERAGE MISS LATENCY: 78.4942 cycles
cpu0_L2C TOTAL     ACCESS:     428279  HIT:     237321  MISS:     190958
cpu0_L2C LOAD      ACCESS:     252308  HIT:     142300  MISS:     110008
cpu0_L2C RFO       ACCESS:      87204  HIT:       6445  MISS:      80759
cpu0_L2C PREFETCH  ACCESS:          0  HIT:          0  MISS:          0
cpu0_L2C WRITEBACK ACCESS:      88525  HIT:      88366  MISS:        159
cpu0_L2C TRANSLATION ACCESS:        242  HIT:        210  MISS:         32
cpu0_L2C PREFETCH  REQUESTED:          0  ISSUED:          0  USEFUL:          0  USELESS:          0
cpu0_L2C AVERAGE MISS LATENCY: 114.881 cycles
LLC TOTAL     ACCESS:     266245  HIT:     183594  MISS:      82651
LLC LOAD      ACCESS:     110008  HIT:      62614  MISS:      47394
LLC RFO       ACCESS:      80759  HIT:      50342  MISS:      30417
LLC PREFETCH  ACCESS:          0  HIT:          0  MISS:          0
LLC WRITEBACK ACCESS:      75446  HIT:      70620  MISS:       4826
LLC TRANSLATION ACCESS:         32  HIT:         18  MISS:         14
LLC PREFETCH  REQUESTED:          0  ISSUED:          0  USEFUL:          0  USELESS:          0
LLC AVERAGE MISS LATENCY: 216.939 cycles

DRAM Statistics
 CHANNEL 0
 RQ ROW_BUFFER_HIT:      26291  ROW_BUFFER_MISS:      51484
 DBUS AVG_CONGESTED_CYCLE:      3.912
 WQ ROW_BUFFER_HIT:       4028  ROW_BUFFER_MISS:      28077  FULL:          0


CPU 0 Branch Prediction Accuracy: 92.8368% MPKI: 5.81059 Average ROB Occupancy at Mispredict: 122.856
Branch type MPKI
BRANCH_DIRECT_JUMP: 0.00172
BRANCH_INDIRECT: 0.00314
BRANCH_CONDITIONAL: 5.80098
BRANCH_DIRECT_CALL: 0.00111
BRANCH_INDIRECT_CALL: 0.00157
BRANCH_RETURN: 0.00207

