
*** ChampSim Multicore Out-of-Order Simulator ***

Warmup Instructions: 10000000
Simulation Instructions: 100000000
Number of CPUs: 1
Off-chip DRAM Size: 4 GiB Channels: 1 Width: 64-bit Data Rate: 3200 MT/s

VirtualMemory physical capacity: 8588881920 num_ppages: 2096895
VirtualMemory page size: 4096 log2_page_size: 12

CPU 0 runs /datasets/cs240c-wi22-a00-public/data/Assignment2/hmmer_397B.trace.xz
CPU 0 Bimodal branch predictor
Basic BTB sets: 1024 ways: 8 indirect buffer size: 4096 RAS size: 64
5th iteration
No hysteresis, common rrpv
Initialize Hawkeye state
Initialize SRRIP state
Heartbeat CPU 0 instructions: 10000000 cycles: 3996187 heartbeat IPC: 2.50239 cumulative IPC: 2.50239 (Simulation time: 0 hr 0 min 36 sec) 

Warmup complete CPU 0 instructions: 10000005 cycles: 3996190 (Simulation time: 0 hr 0 min 36 sec) 

Heartbeat CPU 0 instructions: 20000002 cycles: 9226580 heartbeat IPC: 1.9119 cumulative IPC: 1.9119 (Simulation time: 0 hr 1 min 28 sec) 
Heartbeat CPU 0 instructions: 30000003 cycles: 14147686 heartbeat IPC: 2.03206 cumulative IPC: 1.97015 (Simulation time: 0 hr 2 min 19 sec) 
Heartbeat CPU 0 instructions: 40000003 cycles: 19046084 heartbeat IPC: 2.04148 cumulative IPC: 1.99337 (Simulation time: 0 hr 3 min 10 sec) 
Heartbeat CPU 0 instructions: 50000001 cycles: 24190763 heartbeat IPC: 1.94376 cumulative IPC: 1.98073 (Simulation time: 0 hr 4 min 1 sec) 
Heartbeat CPU 0 instructions: 60000002 cycles: 29157874 heartbeat IPC: 2.01324 cumulative IPC: 1.98715 (Simulation time: 0 hr 4 min 51 sec) 
Heartbeat CPU 0 instructions: 70000004 cycles: 33834615 heartbeat IPC: 2.13824 cumulative IPC: 2.01083 (Simulation time: 0 hr 5 min 41 sec) 
Heartbeat CPU 0 instructions: 80000000 cycles: 38186151 heartbeat IPC: 2.29804 cumulative IPC: 2.04738 (Simulation time: 0 hr 6 min 30 sec) 
Heartbeat CPU 0 instructions: 90000004 cycles: 42548641 heartbeat IPC: 2.29227 cumulative IPC: 2.07509 (Simulation time: 0 hr 7 min 17 sec) 
Heartbeat CPU 0 instructions: 100000003 cycles: 46884518 heartbeat IPC: 2.30634 cumulative IPC: 2.09847 (Simulation time: 0 hr 8 min 5 sec) 
Heartbeat CPU 0 instructions: 110000001 cycles: 51232122 heartbeat IPC: 2.30012 cumulative IPC: 2.11703 (Simulation time: 0 hr 8 min 53 sec) 
Finished CPU 0 instructions: 100000001 cycles: 47235933 cumulative IPC: 2.11703 (Simulation time: 0 hr 8 min 53 sec) 

ChampSim completed all CPUs

Region of Interest Statistics

CPU 0 cumulative IPC: 2.11703 instructions: 100000001 cycles: 47235933
cpu0_DTLB TOTAL     ACCESS:   40464670  HIT:   40456714  MISS:       7956
cpu0_DTLB LOAD      ACCESS:   32301544  HIT:   32298672  MISS:       2872
cpu0_DTLB RFO       ACCESS:    8163126  HIT:    8158042  MISS:       5084
cpu0_DTLB PREFETCH  ACCESS:          0  HIT:          0  MISS:          0
cpu0_DTLB WRITEBACK ACCESS:          0  HIT:          0  MISS:          0
cpu0_DTLB TRANSLATION ACCESS:          0  HIT:          0  MISS:          0
cpu0_DTLB PREFETCH  REQUESTED:          0  ISSUED:          0  USEFUL:          0  USELESS:          0
cpu0_DTLB AVERAGE MISS LATENCY: 24.9545 cycles
cpu0_ITLB TOTAL     ACCESS:     799273  HIT:     799166  MISS:        107
cpu0_ITLB LOAD      ACCESS:     799273  HIT:     799166  MISS:        107
cpu0_ITLB RFO       ACCESS:          0  HIT:          0  MISS:          0
cpu0_ITLB PREFETCH  ACCESS:          0  HIT:          0  MISS:          0
cpu0_ITLB WRITEBACK ACCESS:          0  HIT:          0  MISS:          0
cpu0_ITLB TRANSLATION ACCESS:          0  HIT:          0  MISS:          0
cpu0_ITLB PREFETCH  REQUESTED:          0  ISSUED:          0  USEFUL:          0  USELESS:          0
cpu0_ITLB AVERAGE MISS LATENCY: 79.2617 cycles
cpu0_L1I TOTAL     ACCESS:      64572  HIT:      64236  MISS:        336
cpu0_L1I LOAD      ACCESS:      64572  HIT:      64236  MISS:        336
cpu0_L1I RFO       ACCESS:          0  HIT:          0  MISS:          0
cpu0_L1I PREFETCH  ACCESS:          0  HIT:          0  MISS:          0
cpu0_L1I WRITEBACK ACCESS:          0  HIT:          0  MISS:          0
cpu0_L1I TRANSLATION ACCESS:          0  HIT:          0  MISS:          0
cpu0_L1I PREFETCH  REQUESTED:          0  ISSUED:          0  USEFUL:          0  USELESS:          0
cpu0_L1I AVERAGE MISS LATENCY: 313.905 cycles
cpu0_STLB TOTAL     ACCESS:       8063  HIT:       7283  MISS:        780
cpu0_STLB LOAD      ACCESS:       2979  HIT:       2812  MISS:        167
cpu0_STLB RFO       ACCESS:       5084  HIT:       4471  MISS:        613
cpu0_STLB PREFETCH  ACCESS:          0  HIT:          0  MISS:          0
cpu0_STLB WRITEBACK ACCESS:          0  HIT:          0  MISS:          0
cpu0_STLB TRANSLATION ACCESS:          0  HIT:          0  MISS:          0
cpu0_STLB PREFETCH  REQUESTED:          0  ISSUED:          0  USEFUL:          0  USELESS:          0
cpu0_STLB AVERAGE MISS LATENCY: 172.285 cycles
cpu0_L1D TOTAL     ACCESS:   32578192  HIT:   32112510  MISS:     465682
cpu0_L1D LOAD      ACCESS:   28659558  HIT:   28503047  MISS:     156511
cpu0_L1D RFO       ACCESS:    3917863  HIT:    3608878  MISS:     308985
cpu0_L1D PREFETCH  ACCESS:          0  HIT:          0  MISS:          0
cpu0_L1D WRITEBACK ACCESS:          0  HIT:          0  MISS:          0
cpu0_L1D TRANSLATION ACCESS:        771  HIT:        585  MISS:        186
cpu0_L1D PREFETCH  REQUESTED:          0  ISSUED:          0  USEFUL:          0  USELESS:          0
cpu0_L1D AVERAGE MISS LATENCY: 353.423 cycles
cpu0_L2C TOTAL     ACCESS:     772542  HIT:     485352  MISS:     287190
cpu0_L2C LOAD      ACCESS:     156847  HIT:     142165  MISS:      14682
cpu0_L2C RFO       ACCESS:     308985  HIT:      36531  MISS:     272454
cpu0_L2C PREFETCH  ACCESS:          0  HIT:          0  MISS:          0
cpu0_L2C WRITEBACK ACCESS:     306524  HIT:     306487  MISS:         37
cpu0_L2C TRANSLATION ACCESS:        186  HIT:        169  MISS:         17
cpu0_L2C PREFETCH  REQUESTED:          0  ISSUED:          0  USEFUL:          0  USELESS:          0
cpu0_L2C AVERAGE MISS LATENCY: 555.584 cycles
LLC TOTAL     ACCESS:     557745  HIT:     331806  MISS:     225939
LLC LOAD      ACCESS:      14682  HIT:      10749  MISS:       3933
LLC RFO       ACCESS:     272307  HIT:     130110  MISS:     142197
LLC PREFETCH  ACCESS:          0  HIT:          0  MISS:          0
LLC WRITEBACK ACCESS:     270739  HIT:     190936  MISS:      79803
LLC TRANSLATION ACCESS:         17  HIT:         11  MISS:          6
LLC PREFETCH  REQUESTED:          0  ISSUED:          0  USEFUL:          0  USELESS:          0
LLC AVERAGE MISS LATENCY: 679.523 cycles

DRAM Statistics
 CHANNEL 0
 RQ ROW_BUFFER_HIT:       1891  ROW_BUFFER_MISS:     144243
 DBUS AVG_CONGESTED_CYCLE:    3.99393
 WQ ROW_BUFFER_HIT:       8164  ROW_BUFFER_MISS:     134758  FULL:       4035


CPU 0 Branch Prediction Accuracy: 98.9257% MPKI: 0.41399 Average ROB Occupancy at Mispredict: 249.964
Branch type MPKI
BRANCH_DIRECT_JUMP: 0.00081
BRANCH_INDIRECT: 0.00176
BRANCH_CONDITIONAL: 0.40978
BRANCH_DIRECT_CALL: 0.00081
BRANCH_INDIRECT_CALL: 2e-05
BRANCH_RETURN: 0.00081

