
*** ChampSim Multicore Out-of-Order Simulator ***

Warmup Instructions: 10000000
Simulation Instructions: 100000000
Number of CPUs: 1
Off-chip DRAM Size: 4 GiB Channels: 1 Width: 64-bit Data Rate: 3200 MT/s

VirtualMemory physical capacity: 8588881920 num_ppages: 2096895
VirtualMemory page size: 4096 log2_page_size: 12

CPU 0 runs /datasets/cs240c-wi22-a00-public/data/Assignment2/hmmer_7B.trace.xz
CPU 0 Bimodal branch predictor
Basic BTB sets: 1024 ways: 8 indirect buffer size: 4096 RAS size: 64
5th iteration
No hysteresis, common rrpv
Initialize Hawkeye state
Initialize SRRIP state
Heartbeat CPU 0 instructions: 10000004 cycles: 3986065 heartbeat IPC: 2.50874 cumulative IPC: 2.50874 (Simulation time: 0 hr 0 min 36 sec) 

Warmup complete CPU 0 instructions: 10000004 cycles: 3986065 (Simulation time: 0 hr 0 min 36 sec) 

Heartbeat CPU 0 instructions: 20000004 cycles: 9290040 heartbeat IPC: 1.88538 cumulative IPC: 1.88538 (Simulation time: 0 hr 1 min 29 sec) 
Heartbeat CPU 0 instructions: 30000001 cycles: 14142171 heartbeat IPC: 2.06095 cumulative IPC: 1.96926 (Simulation time: 0 hr 2 min 18 sec) 
Heartbeat CPU 0 instructions: 40000001 cycles: 18643713 heartbeat IPC: 2.22146 cumulative IPC: 2.04671 (Simulation time: 0 hr 3 min 8 sec) 
Heartbeat CPU 0 instructions: 50000000 cycles: 23822214 heartbeat IPC: 1.93106 cumulative IPC: 2.01652 (Simulation time: 0 hr 3 min 58 sec) 
Heartbeat CPU 0 instructions: 60000000 cycles: 28151472 heartbeat IPC: 2.30986 cumulative IPC: 2.06907 (Simulation time: 0 hr 4 min 47 sec) 
Heartbeat CPU 0 instructions: 70000003 cycles: 32472538 heartbeat IPC: 2.31424 cumulative IPC: 2.10626 (Simulation time: 0 hr 5 min 35 sec) 
Heartbeat CPU 0 instructions: 80000001 cycles: 36781160 heartbeat IPC: 2.32093 cumulative IPC: 2.13447 (Simulation time: 0 hr 6 min 22 sec) 
Heartbeat CPU 0 instructions: 90000004 cycles: 41099156 heartbeat IPC: 2.31589 cumulative IPC: 2.15557 (Simulation time: 0 hr 7 min 9 sec) 
Heartbeat CPU 0 instructions: 100000002 cycles: 45418282 heartbeat IPC: 2.31528 cumulative IPC: 2.17222 (Simulation time: 0 hr 7 min 57 sec) 
Heartbeat CPU 0 instructions: 110000001 cycles: 49747988 heartbeat IPC: 2.30963 cumulative IPC: 2.18522 (Simulation time: 0 hr 8 min 44 sec) 
Finished CPU 0 instructions: 100000002 cycles: 45761924 cumulative IPC: 2.18522 (Simulation time: 0 hr 8 min 44 sec) 

ChampSim completed all CPUs

Region of Interest Statistics

CPU 0 cumulative IPC: 2.18522 instructions: 100000002 cycles: 45761924
cpu0_DTLB TOTAL     ACCESS:   40545134  HIT:   40530977  MISS:      14157
cpu0_DTLB LOAD      ACCESS:   32389931  HIT:   32382212  MISS:       7719
cpu0_DTLB RFO       ACCESS:    8155203  HIT:    8148765  MISS:       6438
cpu0_DTLB PREFETCH  ACCESS:          0  HIT:          0  MISS:          0
cpu0_DTLB WRITEBACK ACCESS:          0  HIT:          0  MISS:          0
cpu0_DTLB TRANSLATION ACCESS:          0  HIT:          0  MISS:          0
cpu0_DTLB PREFETCH  REQUESTED:          0  ISSUED:          0  USEFUL:          0  USELESS:          0
cpu0_DTLB AVERAGE MISS LATENCY: 15.2034 cycles
cpu0_ITLB TOTAL     ACCESS:     800361  HIT:     800289  MISS:         72
cpu0_ITLB LOAD      ACCESS:     800361  HIT:     800289  MISS:         72
cpu0_ITLB RFO       ACCESS:          0  HIT:          0  MISS:          0
cpu0_ITLB PREFETCH  ACCESS:          0  HIT:          0  MISS:          0
cpu0_ITLB WRITEBACK ACCESS:          0  HIT:          0  MISS:          0
cpu0_ITLB TRANSLATION ACCESS:          0  HIT:          0  MISS:          0
cpu0_ITLB PREFETCH  REQUESTED:          0  ISSUED:          0  USEFUL:          0  USELESS:          0
cpu0_ITLB AVERAGE MISS LATENCY: 21 cycles
cpu0_L1I TOTAL     ACCESS:      62153  HIT:      62048  MISS:        105
cpu0_L1I LOAD      ACCESS:      62153  HIT:      62048  MISS:        105
cpu0_L1I RFO       ACCESS:          0  HIT:          0  MISS:          0
cpu0_L1I PREFETCH  ACCESS:          0  HIT:          0  MISS:          0
cpu0_L1I WRITEBACK ACCESS:          0  HIT:          0  MISS:          0
cpu0_L1I TRANSLATION ACCESS:          0  HIT:          0  MISS:          0
cpu0_L1I PREFETCH  REQUESTED:          0  ISSUED:          0  USEFUL:          0  USELESS:          0
cpu0_L1I AVERAGE MISS LATENCY: 102.714 cycles
cpu0_STLB TOTAL     ACCESS:      14229  HIT:      13774  MISS:        455
cpu0_STLB LOAD      ACCESS:       7791  HIT:       7783  MISS:          8
cpu0_STLB RFO       ACCESS:       6438  HIT:       5991  MISS:        447
cpu0_STLB PREFETCH  ACCESS:          0  HIT:          0  MISS:          0
cpu0_STLB WRITEBACK ACCESS:          0  HIT:          0  MISS:          0
cpu0_STLB TRANSLATION ACCESS:          0  HIT:          0  MISS:          0
cpu0_STLB PREFETCH  REQUESTED:          0  ISSUED:          0  USEFUL:          0  USELESS:          0
cpu0_STLB AVERAGE MISS LATENCY: 194.721 cycles
cpu0_L1D TOTAL     ACCESS:   33431438  HIT:   32961332  MISS:     470106
cpu0_L1D LOAD      ACCESS:   28671803  HIT:   28510428  MISS:     161375
cpu0_L1D RFO       ACCESS:    4759181  HIT:    4450473  MISS:     308708
cpu0_L1D PREFETCH  ACCESS:          0  HIT:          0  MISS:          0
cpu0_L1D WRITEBACK ACCESS:          0  HIT:          0  MISS:          0
cpu0_L1D TRANSLATION ACCESS:        454  HIT:        431  MISS:         23
cpu0_L1D PREFETCH  REQUESTED:          0  ISSUED:          0  USEFUL:          0  USELESS:          0
cpu0_L1D AVERAGE MISS LATENCY: 245.693 cycles
cpu0_L2C TOTAL     ACCESS:     777198  HIT:     472272  MISS:     304926
cpu0_L2C LOAD      ACCESS:     161480  HIT:     149243  MISS:      12237
cpu0_L2C RFO       ACCESS:     308708  HIT:      16074  MISS:     292634
cpu0_L2C PREFETCH  ACCESS:          0  HIT:          0  MISS:          0
cpu0_L2C WRITEBACK ACCESS:     306987  HIT:     306940  MISS:         47
cpu0_L2C TRANSLATION ACCESS:         23  HIT:         15  MISS:          8
cpu0_L2C PREFETCH  REQUESTED:          0  ISSUED:          0  USEFUL:          0  USELESS:          0
cpu0_L2C AVERAGE MISS LATENCY: 361.845 cycles
LLC TOTAL     ACCESS:     596387  HIT:     440351  MISS:     156036
LLC LOAD      ACCESS:      12236  HIT:      10976  MISS:       1260
LLC RFO       ACCESS:     292633  HIT:     208196  MISS:      84437
LLC PREFETCH  ACCESS:          0  HIT:          0  MISS:          0
LLC WRITEBACK ACCESS:     291510  HIT:     221173  MISS:      70337
LLC TRANSLATION ACCESS:          8  HIT:          6  MISS:          2
LLC PREFETCH  REQUESTED:          0  ISSUED:          0  USEFUL:          0  USELESS:          0
LLC AVERAGE MISS LATENCY: 666.085 cycles

DRAM Statistics
 CHANNEL 0
 RQ ROW_BUFFER_HIT:       1517  ROW_BUFFER_MISS:      84174
 DBUS AVG_CONGESTED_CYCLE:    3.99309
 WQ ROW_BUFFER_HIT:       5990  ROW_BUFFER_MISS:      78103  FULL:       7240


CPU 0 Branch Prediction Accuracy: 98.9368% MPKI: 0.40856 Average ROB Occupancy at Mispredict: 252.368
Branch type MPKI
BRANCH_DIRECT_JUMP: 0.00016
BRANCH_INDIRECT: 0.00157
BRANCH_CONDITIONAL: 0.40659
BRANCH_DIRECT_CALL: 9e-05
BRANCH_INDIRECT_CALL: 3e-05
BRANCH_RETURN: 0.00012

