
*** ChampSim Multicore Out-of-Order Simulator ***

Warmup Instructions: 10000000
Simulation Instructions: 100000000
Number of CPUs: 1
Off-chip DRAM Size: 4 GiB Channels: 1 Width: 64-bit Data Rate: 3200 MT/s

VirtualMemory physical capacity: 8588881920 num_ppages: 2096895
VirtualMemory page size: 4096 log2_page_size: 12

CPU 0 runs /datasets/cs240c-wi22-a00-public/data/Assignment2/lbm_1004B.trace.xz
CPU 0 Bimodal branch predictor
Basic BTB sets: 1024 ways: 8 indirect buffer size: 4096 RAS size: 64
5th iteration
No hysteresis, common rrpv
Initialize Hawkeye state
Initialize SRRIP state
Heartbeat CPU 0 instructions: 10000003 cycles: 2504744 heartbeat IPC: 3.99243 cumulative IPC: 3.99243 (Simulation time: 0 hr 0 min 19 sec) 

Warmup complete CPU 0 instructions: 10000003 cycles: 2504744 (Simulation time: 0 hr 0 min 19 sec) 

Heartbeat CPU 0 instructions: 20000004 cycles: 33592262 heartbeat IPC: 0.321673 cumulative IPC: 0.321673 (Simulation time: 0 hr 1 min 50 sec) 
Heartbeat CPU 0 instructions: 30000004 cycles: 67010615 heartbeat IPC: 0.299237 cumulative IPC: 0.310049 (Simulation time: 0 hr 3 min 26 sec) 
Heartbeat CPU 0 instructions: 40000004 cycles: 98040334 heartbeat IPC: 0.322272 cumulative IPC: 0.314019 (Simulation time: 0 hr 4 min 57 sec) 
Heartbeat CPU 0 instructions: 50000004 cycles: 130060705 heartbeat IPC: 0.312301 cumulative IPC: 0.313588 (Simulation time: 0 hr 6 min 31 sec) 
Heartbeat CPU 0 instructions: 60000004 cycles: 163173891 heartbeat IPC: 0.301995 cumulative IPC: 0.311199 (Simulation time: 0 hr 8 min 5 sec) 
Heartbeat CPU 0 instructions: 70000001 cycles: 196398295 heartbeat IPC: 0.300983 cumulative IPC: 0.309448 (Simulation time: 0 hr 9 min 41 sec) 
Heartbeat CPU 0 instructions: 80000000 cycles: 253680000 heartbeat IPC: 0.174576 cumulative IPC: 0.27869 (Simulation time: 0 hr 12 min 55 sec) 
Heartbeat CPU 0 instructions: 90000003 cycles: 287253667 heartbeat IPC: 0.297853 cumulative IPC: 0.280949 (Simulation time: 0 hr 14 min 30 sec) 
Heartbeat CPU 0 instructions: 100000000 cycles: 321326492 heartbeat IPC: 0.293489 cumulative IPC: 0.282289 (Simulation time: 0 hr 16 min 5 sec) 
Heartbeat CPU 0 instructions: 110000003 cycles: 356057392 heartbeat IPC: 0.287928 cumulative IPC: 0.282843 (Simulation time: 0 hr 17 min 43 sec) 
Finished CPU 0 instructions: 100000000 cycles: 353552648 cumulative IPC: 0.282843 (Simulation time: 0 hr 17 min 43 sec) 

ChampSim completed all CPUs

Region of Interest Statistics

CPU 0 cumulative IPC: 0.282843 instructions: 100000000 cycles: 353552648
cpu0_DTLB TOTAL     ACCESS:   13662565  HIT:   13612115  MISS:      50450
cpu0_DTLB LOAD      ACCESS:    6949065  HIT:    6936446  MISS:      12619
cpu0_DTLB RFO       ACCESS:    6713500  HIT:    6675669  MISS:      37831
cpu0_DTLB PREFETCH  ACCESS:          0  HIT:          0  MISS:          0
cpu0_DTLB WRITEBACK ACCESS:          0  HIT:          0  MISS:          0
cpu0_DTLB TRANSLATION ACCESS:          0  HIT:          0  MISS:          0
cpu0_DTLB PREFETCH  REQUESTED:          0  ISSUED:          0  USEFUL:          0  USELESS:          0
cpu0_DTLB AVERAGE MISS LATENCY: 353.876 cycles
cpu0_ITLB TOTAL     ACCESS:     118947  HIT:     118946  MISS:          1
cpu0_ITLB LOAD      ACCESS:     118947  HIT:     118946  MISS:          1
cpu0_ITLB RFO       ACCESS:          0  HIT:          0  MISS:          0
cpu0_ITLB PREFETCH  ACCESS:          0  HIT:          0  MISS:          0
cpu0_ITLB WRITEBACK ACCESS:          0  HIT:          0  MISS:          0
cpu0_ITLB TRANSLATION ACCESS:          0  HIT:          0  MISS:          0
cpu0_ITLB PREFETCH  REQUESTED:          0  ISSUED:          0  USEFUL:          0  USELESS:          0
cpu0_ITLB AVERAGE MISS LATENCY: 1539 cycles
cpu0_L1I TOTAL     ACCESS:         12  HIT:          6  MISS:          6
cpu0_L1I LOAD      ACCESS:         12  HIT:          6  MISS:          6
cpu0_L1I RFO       ACCESS:          0  HIT:          0  MISS:          0
cpu0_L1I PREFETCH  ACCESS:          0  HIT:          0  MISS:          0
cpu0_L1I WRITEBACK ACCESS:          0  HIT:          0  MISS:          0
cpu0_L1I TRANSLATION ACCESS:          0  HIT:          0  MISS:          0
cpu0_L1I PREFETCH  REQUESTED:          0  ISSUED:          0  USEFUL:          0  USELESS:          0
cpu0_L1I AVERAGE MISS LATENCY: 289.5 cycles
cpu0_STLB TOTAL     ACCESS:      50451  HIT:          5  MISS:      50446
cpu0_STLB LOAD      ACCESS:      12620  HIT:          0  MISS:      12620
cpu0_STLB RFO       ACCESS:      37831  HIT:          5  MISS:      37826
cpu0_STLB PREFETCH  ACCESS:          0  HIT:          0  MISS:          0
cpu0_STLB WRITEBACK ACCESS:          0  HIT:          0  MISS:          0
cpu0_STLB TRANSLATION ACCESS:          0  HIT:          0  MISS:          0
cpu0_STLB PREFETCH  REQUESTED:          0  ISSUED:          0  USEFUL:          0  USELESS:          0
cpu0_STLB AVERAGE MISS LATENCY: 344.933 cycles
cpu0_L1D TOTAL     ACCESS:   15129010  HIT:    9808485  MISS:    5320525
cpu0_L1D LOAD      ACCESS:    4356601  HIT:    3550238  MISS:     806363
cpu0_L1D RFO       ACCESS:   10721980  HIT:    6207867  MISS:    4514113
cpu0_L1D PREFETCH  ACCESS:          0  HIT:          0  MISS:          0
cpu0_L1D WRITEBACK ACCESS:          0  HIT:          0  MISS:          0
cpu0_L1D TRANSLATION ACCESS:      50429  HIT:      50380  MISS:         49
cpu0_L1D PREFETCH  REQUESTED:          0  ISSUED:          0  USEFUL:          0  USELESS:          0
cpu0_L1D AVERAGE MISS LATENCY: 481.595 cycles
cpu0_L2C TOTAL     ACCESS:    9834646  HIT:    6608182  MISS:    3226464
cpu0_L2C LOAD      ACCESS:     806369  HIT:        193  MISS:     806176
cpu0_L2C RFO       ACCESS:    4514113  HIT:    2093967  MISS:    2420146
cpu0_L2C PREFETCH  ACCESS:          0  HIT:          0  MISS:          0
cpu0_L2C WRITEBACK ACCESS:    4514115  HIT:    4514022  MISS:         93
cpu0_L2C TRANSLATION ACCESS:         49  HIT:          0  MISS:         49
cpu0_L2C PREFETCH  REQUESTED:          0  ISSUED:          0  USEFUL:          0  USELESS:          0
cpu0_L2C AVERAGE MISS LATENCY: 774.655 cycles
LLC TOTAL     ACCESS:    5646847  HIT:    1276426  MISS:    4370421
LLC LOAD      ACCESS:     806176  HIT:         56  MISS:     806120
LLC RFO       ACCESS:    2420146  HIT:     392561  MISS:    2027585
LLC PREFETCH  ACCESS:          0  HIT:          0  MISS:          0
LLC WRITEBACK ACCESS:    2420476  HIT:     883792  MISS:    1536684
LLC TRANSLATION ACCESS:         49  HIT:         17  MISS:         32
LLC PREFETCH  REQUESTED:          0  ISSUED:          0  USEFUL:          0  USELESS:          0
LLC AVERAGE MISS LATENCY: 556.386 cycles

DRAM Statistics
 CHANNEL 0
 RQ ROW_BUFFER_HIT:      48045  ROW_BUFFER_MISS:    2785494
 DBUS AVG_CONGESTED_CYCLE:    3.99635
 WQ ROW_BUFFER_HIT:      23384  ROW_BUFFER_MISS:    2059523  FULL:          0


CPU 0 Branch Prediction Accuracy: 99.2476% MPKI: 0.09355 Average ROB Occupancy at Mispredict: 169.611
Branch type MPKI
BRANCH_DIRECT_JUMP: 2e-05
BRANCH_INDIRECT: 0
BRANCH_CONDITIONAL: 0.09349
BRANCH_DIRECT_CALL: 2e-05
BRANCH_INDIRECT_CALL: 0
BRANCH_RETURN: 2e-05

