
*** ChampSim Multicore Out-of-Order Simulator ***

Warmup Instructions: 10000000
Simulation Instructions: 100000000
Number of CPUs: 1
Off-chip DRAM Size: 4 GiB Channels: 1 Width: 64-bit Data Rate: 3200 MT/s

VirtualMemory physical capacity: 8588881920 num_ppages: 2096895
VirtualMemory page size: 4096 log2_page_size: 12

CPU 0 runs /datasets/cs240c-wi22-a00-public/data/Assignment2/leslie3d_1116B.trace.xz
CPU 0 Bimodal branch predictor
Basic BTB sets: 1024 ways: 8 indirect buffer size: 4096 RAS size: 64
5th iteration
No hysteresis, common rrpv
Initialize Hawkeye state
Initialize SRRIP state
Heartbeat CPU 0 instructions: 10000000 cycles: 3692435 heartbeat IPC: 2.70824 cumulative IPC: 2.70824 (Simulation time: 0 hr 0 min 35 sec) 

Warmup complete CPU 0 instructions: 10000005 cycles: 3692436 (Simulation time: 0 hr 0 min 35 sec) 

Heartbeat CPU 0 instructions: 20000000 cycles: 13173391 heartbeat IPC: 1.05475 cumulative IPC: 1.05475 (Simulation time: 0 hr 1 min 36 sec) 
Heartbeat CPU 0 instructions: 30000004 cycles: 22250913 heartbeat IPC: 1.10162 cumulative IPC: 1.07767 (Simulation time: 0 hr 2 min 35 sec) 
Heartbeat CPU 0 instructions: 40000004 cycles: 33994901 heartbeat IPC: 0.851499 cumulative IPC: 0.990018 (Simulation time: 0 hr 3 min 42 sec) 
Heartbeat CPU 0 instructions: 50000000 cycles: 55713133 heartbeat IPC: 0.460442 cumulative IPC: 0.768925 (Simulation time: 0 hr 5 min 21 sec) 
Heartbeat CPU 0 instructions: 60000001 cycles: 108338377 heartbeat IPC: 0.190023 cumulative IPC: 0.477802 (Simulation time: 0 hr 8 min 44 sec) 
Heartbeat CPU 0 instructions: 70000000 cycles: 122494820 heartbeat IPC: 0.706392 cumulative IPC: 0.50504 (Simulation time: 0 hr 10 min 2 sec) 
Heartbeat CPU 0 instructions: 80000001 cycles: 135047342 heartbeat IPC: 0.796653 cumulative IPC: 0.532907 (Simulation time: 0 hr 11 min 13 sec) 
Heartbeat CPU 0 instructions: 90000004 cycles: 148270269 heartbeat IPC: 0.756262 cumulative IPC: 0.553335 (Simulation time: 0 hr 12 min 28 sec) 
Heartbeat CPU 0 instructions: 100000002 cycles: 160752634 heartbeat IPC: 0.80113 cumulative IPC: 0.573029 (Simulation time: 0 hr 13 min 40 sec) 
Heartbeat CPU 0 instructions: 110000001 cycles: 178204953 heartbeat IPC: 0.57299 cumulative IPC: 0.573025 (Simulation time: 0 hr 15 min 3 sec) 
Finished CPU 0 instructions: 100000001 cycles: 174512518 cumulative IPC: 0.573025 (Simulation time: 0 hr 15 min 3 sec) 

ChampSim completed all CPUs

Region of Interest Statistics

CPU 0 cumulative IPC: 0.573025 instructions: 100000001 cycles: 174512518
cpu0_DTLB TOTAL     ACCESS:   25748406  HIT:   25682733  MISS:      65673
cpu0_DTLB LOAD      ACCESS:   21136560  HIT:   21084938  MISS:      51622
cpu0_DTLB RFO       ACCESS:    4611846  HIT:    4597795  MISS:      14051
cpu0_DTLB PREFETCH  ACCESS:          0  HIT:          0  MISS:          0
cpu0_DTLB WRITEBACK ACCESS:          0  HIT:          0  MISS:          0
cpu0_DTLB TRANSLATION ACCESS:          0  HIT:          0  MISS:          0
cpu0_DTLB PREFETCH  REQUESTED:          0  ISSUED:          0  USEFUL:          0  USELESS:          0
cpu0_DTLB AVERAGE MISS LATENCY: 82.7746 cycles
cpu0_ITLB TOTAL     ACCESS:    2886696  HIT:    2886678  MISS:         18
cpu0_ITLB LOAD      ACCESS:    2886696  HIT:    2886678  MISS:         18
cpu0_ITLB RFO       ACCESS:          0  HIT:          0  MISS:          0
cpu0_ITLB PREFETCH  ACCESS:          0  HIT:          0  MISS:          0
cpu0_ITLB WRITEBACK ACCESS:          0  HIT:          0  MISS:          0
cpu0_ITLB TRANSLATION ACCESS:          0  HIT:          0  MISS:          0
cpu0_ITLB PREFETCH  REQUESTED:          0  ISSUED:          0  USEFUL:          0  USELESS:          0
cpu0_ITLB AVERAGE MISS LATENCY: 470.222 cycles
cpu0_L1I TOTAL     ACCESS:    1781737  HIT:    1781265  MISS:        472
cpu0_L1I LOAD      ACCESS:    1781737  HIT:    1781265  MISS:        472
cpu0_L1I RFO       ACCESS:          0  HIT:          0  MISS:          0
cpu0_L1I PREFETCH  ACCESS:          0  HIT:          0  MISS:          0
cpu0_L1I WRITEBACK ACCESS:          0  HIT:          0  MISS:          0
cpu0_L1I TRANSLATION ACCESS:          0  HIT:          0  MISS:          0
cpu0_L1I PREFETCH  REQUESTED:          0  ISSUED:          0  USEFUL:          0  USELESS:          0
cpu0_L1I AVERAGE MISS LATENCY: 374.576 cycles
cpu0_STLB TOTAL     ACCESS:      65691  HIT:      34067  MISS:      31624
cpu0_STLB LOAD      ACCESS:      51640  HIT:      28174  MISS:      23466
cpu0_STLB RFO       ACCESS:      14051  HIT:       5893  MISS:       8158
cpu0_STLB PREFETCH  ACCESS:          0  HIT:          0  MISS:          0
cpu0_STLB WRITEBACK ACCESS:          0  HIT:          0  MISS:          0
cpu0_STLB TRANSLATION ACCESS:          0  HIT:          0  MISS:          0
cpu0_STLB PREFETCH  REQUESTED:          0  ISSUED:          0  USEFUL:          0  USELESS:          0
cpu0_STLB AVERAGE MISS LATENCY: 153.456 cycles
cpu0_L1D TOTAL     ACCESS:   24602308  HIT:   21192065  MISS:    3410243
cpu0_L1D LOAD      ACCESS:   16448543  HIT:   13831327  MISS:    2617216
cpu0_L1D RFO       ACCESS:    8124431  HIT:    7335045  MISS:     789386
cpu0_L1D PREFETCH  ACCESS:          0  HIT:          0  MISS:          0
cpu0_L1D WRITEBACK ACCESS:          0  HIT:          0  MISS:          0
cpu0_L1D TRANSLATION ACCESS:      29334  HIT:      25693  MISS:       3641
cpu0_L1D PREFETCH  REQUESTED:          0  ISSUED:          0  USEFUL:          0  USELESS:          0
cpu0_L1D AVERAGE MISS LATENCY: 468.499 cycles
cpu0_L2C TOTAL     ACCESS:    4455136  HIT:    1718538  MISS:    2736598
cpu0_L2C LOAD      ACCESS:    2617642  HIT:     507798  MISS:    2109844
cpu0_L2C RFO       ACCESS:     789302  HIT:     162820  MISS:     626482
cpu0_L2C PREFETCH  ACCESS:          0  HIT:          0  MISS:          0
cpu0_L2C WRITEBACK ACCESS:    1044551  HIT:    1044377  MISS:        174
cpu0_L2C TRANSLATION ACCESS:       3641  HIT:       3543  MISS:         98
cpu0_L2C PREFETCH  REQUESTED:          0  ISSUED:          0  USEFUL:          0  USELESS:          0
cpu0_L2C AVERAGE MISS LATENCY: 570.151 cycles
LLC TOTAL     ACCESS:    3497140  HIT:     816467  MISS:    2680673
LLC LOAD      ACCESS:    2109844  HIT:     515727  MISS:    1594117
LLC RFO       ACCESS:     626482  HIT:     113898  MISS:     512584
LLC PREFETCH  ACCESS:          0  HIT:          0  MISS:          0
LLC WRITEBACK ACCESS:     760716  HIT:     186816  MISS:     573900
LLC TRANSLATION ACCESS:         98  HIT:         26  MISS:         72
LLC PREFETCH  REQUESTED:          0  ISSUED:          0  USEFUL:          0  USELESS:          0
LLC AVERAGE MISS LATENCY: 560.543 cycles

DRAM Statistics
 CHANNEL 0
 RQ ROW_BUFFER_HIT:     226046  ROW_BUFFER_MISS:    1880533
 DBUS AVG_CONGESTED_CYCLE:    3.95824
 WQ ROW_BUFFER_HIT:      60899  ROW_BUFFER_MISS:     592173  FULL:      35373


CPU 0 Branch Prediction Accuracy: 96.8713% MPKI: 1.55303 Average ROB Occupancy at Mispredict: 298.238
Branch type MPKI
BRANCH_DIRECT_JUMP: 0.00018
BRANCH_INDIRECT: 0
BRANCH_CONDITIONAL: 1.55065
BRANCH_DIRECT_CALL: 0.00113
BRANCH_INDIRECT_CALL: 0
BRANCH_RETURN: 0.00107

