
*** ChampSim Multicore Out-of-Order Simulator ***

Warmup Instructions: 10000000
Simulation Instructions: 100000000
Number of CPUs: 1
Off-chip DRAM Size: 4 GiB Channels: 1 Width: 64-bit Data Rate: 3200 MT/s

VirtualMemory physical capacity: 8588881920 num_ppages: 2096895
VirtualMemory page size: 4096 log2_page_size: 12

CPU 0 runs /datasets/cs240c-wi22-a00-public/data/Assignment2/mcf_158B.trace.xz
CPU 0 Bimodal branch predictor
Basic BTB sets: 1024 ways: 8 indirect buffer size: 4096 RAS size: 64
5th iteration
No hysteresis, common rrpv
Initialize Hawkeye state
Initialize SRRIP state
Heartbeat CPU 0 instructions: 10000002 cycles: 3864076 heartbeat IPC: 2.58794 cumulative IPC: 2.58794 (Simulation time: 0 hr 0 min 36 sec) 

Warmup complete CPU 0 instructions: 10000002 cycles: 3864076 (Simulation time: 0 hr 0 min 36 sec) 

Heartbeat CPU 0 instructions: 20000000 cycles: 137931542 heartbeat IPC: 0.0745893 cumulative IPC: 0.0745893 (Simulation time: 0 hr 3 min 2 sec) 
Heartbeat CPU 0 instructions: 30000000 cycles: 267235756 heartbeat IPC: 0.077337 cumulative IPC: 0.0759383 (Simulation time: 0 hr 5 min 22 sec) 
Heartbeat CPU 0 instructions: 40000001 cycles: 393574785 heartbeat IPC: 0.0791521 cumulative IPC: 0.0769802 (Simulation time: 0 hr 7 min 38 sec) 
Heartbeat CPU 0 instructions: 50000000 cycles: 511742588 heartbeat IPC: 0.0846254 cumulative IPC: 0.078759 (Simulation time: 0 hr 9 min 47 sec) 
Heartbeat CPU 0 instructions: 60000000 cycles: 626573561 heartbeat IPC: 0.0870845 cumulative IPC: 0.0802943 (Simulation time: 0 hr 11 min 53 sec) 
Heartbeat CPU 0 instructions: 70000002 cycles: 737276088 heartbeat IPC: 0.0903322 cumulative IPC: 0.0818094 (Simulation time: 0 hr 13 min 56 sec) 
Heartbeat CPU 0 instructions: 80000000 cycles: 851627195 heartbeat IPC: 0.0874499 cumulative IPC: 0.0825702 (Simulation time: 0 hr 16 min 5 sec) 
Heartbeat CPU 0 instructions: 90000003 cycles: 968758155 heartbeat IPC: 0.0853745 cumulative IPC: 0.0829107 (Simulation time: 0 hr 18 min 16 sec) 
Heartbeat CPU 0 instructions: 100000003 cycles: 1088615635 heartbeat IPC: 0.0834324 cumulative IPC: 0.0829683 (Simulation time: 0 hr 20 min 31 sec) 
Heartbeat CPU 0 instructions: 110000001 cycles: 1208939174 heartbeat IPC: 0.0831092 cumulative IPC: 0.0829824 (Simulation time: 0 hr 22 min 46 sec) 
Finished CPU 0 instructions: 100000002 cycles: 1205075099 cumulative IPC: 0.0829824 (Simulation time: 0 hr 22 min 46 sec) 

ChampSim completed all CPUs

Region of Interest Statistics

CPU 0 cumulative IPC: 0.0829824 instructions: 100000002 cycles: 1205075099
cpu0_DTLB TOTAL     ACCESS:   23551258  HIT:   12729514  MISS:   10821744
cpu0_DTLB LOAD      ACCESS:   20430766  HIT:    9976146  MISS:   10454620
cpu0_DTLB RFO       ACCESS:    3120492  HIT:    2753368  MISS:     367124
cpu0_DTLB PREFETCH  ACCESS:          0  HIT:          0  MISS:          0
cpu0_DTLB WRITEBACK ACCESS:          0  HIT:          0  MISS:          0
cpu0_DTLB TRANSLATION ACCESS:          0  HIT:          0  MISS:          0
cpu0_DTLB PREFETCH  REQUESTED:          0  ISSUED:          0  USEFUL:          0  USELESS:          0
cpu0_DTLB AVERAGE MISS LATENCY: 11.7653 cycles
cpu0_ITLB TOTAL     ACCESS:   12955769  HIT:   12955769  MISS:          0
cpu0_ITLB LOAD      ACCESS:   12955769  HIT:   12955769  MISS:          0
cpu0_ITLB RFO       ACCESS:          0  HIT:          0  MISS:          0
cpu0_ITLB PREFETCH  ACCESS:          0  HIT:          0  MISS:          0
cpu0_ITLB WRITEBACK ACCESS:          0  HIT:          0  MISS:          0
cpu0_ITLB TRANSLATION ACCESS:          0  HIT:          0  MISS:          0
cpu0_ITLB PREFETCH  REQUESTED:          0  ISSUED:          0  USEFUL:          0  USELESS:          0
cpu0_ITLB AVERAGE MISS LATENCY: -nan cycles
cpu0_L1I TOTAL     ACCESS:         19  HIT:         14  MISS:          5
cpu0_L1I LOAD      ACCESS:         19  HIT:         14  MISS:          5
cpu0_L1I RFO       ACCESS:          0  HIT:          0  MISS:          0
cpu0_L1I PREFETCH  ACCESS:          0  HIT:          0  MISS:          0
cpu0_L1I WRITEBACK ACCESS:          0  HIT:          0  MISS:          0
cpu0_L1I TRANSLATION ACCESS:          0  HIT:          0  MISS:          0
cpu0_L1I PREFETCH  REQUESTED:          0  ISSUED:          0  USEFUL:          0  USELESS:          0
cpu0_L1I AVERAGE MISS LATENCY: 194.2 cycles
cpu0_STLB TOTAL     ACCESS:   10821744  HIT:    9710472  MISS:    1111272
cpu0_STLB LOAD      ACCESS:   10454620  HIT:    9350113  MISS:    1104507
cpu0_STLB RFO       ACCESS:     367124  HIT:     360359  MISS:       6765
cpu0_STLB PREFETCH  ACCESS:          0  HIT:          0  MISS:          0
cpu0_STLB WRITEBACK ACCESS:          0  HIT:          0  MISS:          0
cpu0_STLB TRANSLATION ACCESS:          0  HIT:          0  MISS:          0
cpu0_STLB PREFETCH  REQUESTED:          0  ISSUED:          0  USEFUL:          0  USELESS:          0
cpu0_STLB AVERAGE MISS LATENCY: 26.89 cycles
cpu0_L1D TOTAL     ACCESS:   27613398  HIT:   14069441  MISS:   13543957
cpu0_L1D LOAD      ACCESS:   22266552  HIT:    9096633  MISS:   13169919
cpu0_L1D RFO       ACCESS:    4239334  HIT:    4034322  MISS:     205012
cpu0_L1D PREFETCH  ACCESS:          0  HIT:          0  MISS:          0
cpu0_L1D WRITEBACK ACCESS:          0  HIT:          0  MISS:          0
cpu0_L1D TRANSLATION ACCESS:    1107512  HIT:     938486  MISS:     169026
cpu0_L1D PREFETCH  REQUESTED:          0  ISSUED:          0  USEFUL:          0  USELESS:          0
cpu0_L1D AVERAGE MISS LATENCY: 159.711 cycles
cpu0_L2C TOTAL     ACCESS:   15651521  HIT:    6138350  MISS:    9513171
cpu0_L2C LOAD      ACCESS:   13169557  HIT:    3841547  MISS:    9328010
cpu0_L2C RFO       ACCESS:     205006  HIT:      71794  MISS:     133212
cpu0_L2C PREFETCH  ACCESS:          0  HIT:          0  MISS:          0
cpu0_L2C WRITEBACK ACCESS:    2107932  HIT:    2107581  MISS:        351
cpu0_L2C TRANSLATION ACCESS:     169026  HIT:     117428  MISS:      51598
cpu0_L2C PREFETCH  REQUESTED:          0  ISSUED:          0  USEFUL:          0  USELESS:          0
cpu0_L2C AVERAGE MISS LATENCY: 211.648 cycles
LLC TOTAL     ACCESS:   11018033  HIT:    4464152  MISS:    6553881
LLC LOAD      ACCESS:    9328008  HIT:    3521281  MISS:    5806727
LLC RFO       ACCESS:     133212  HIT:      63925  MISS:      69287
LLC PREFETCH  ACCESS:          0  HIT:          0  MISS:          0
LLC WRITEBACK ACCESS:    1505215  HIT:     863949  MISS:     641266
LLC TRANSLATION ACCESS:      51598  HIT:      14997  MISS:      36601
LLC PREFETCH  REQUESTED:          0  ISSUED:          0  USEFUL:          0  USELESS:          0
LLC AVERAGE MISS LATENCY: 276.733 cycles

DRAM Statistics
 CHANNEL 0
 RQ ROW_BUFFER_HIT:      16990  ROW_BUFFER_MISS:    5894828
 DBUS AVG_CONGESTED_CYCLE:     3.9601
 WQ ROW_BUFFER_HIT:      42623  ROW_BUFFER_MISS:     870644  FULL:          0


CPU 0 Branch Prediction Accuracy: 85.5988% MPKI: 40.2398 Average ROB Occupancy at Mispredict: 17.2153
Branch type MPKI
BRANCH_DIRECT_JUMP: 4e-05
BRANCH_INDIRECT: 0
BRANCH_CONDITIONAL: 40.2397
BRANCH_DIRECT_CALL: 0
BRANCH_INDIRECT_CALL: 0
BRANCH_RETURN: 0

