
*** ChampSim Multicore Out-of-Order Simulator ***

Warmup Instructions: 10000000
Simulation Instructions: 100000000
Number of CPUs: 1
Off-chip DRAM Size: 4 GiB Channels: 1 Width: 64-bit Data Rate: 3200 MT/s

VirtualMemory physical capacity: 8588881920 num_ppages: 2096895
VirtualMemory page size: 4096 log2_page_size: 12

CPU 0 runs /datasets/cs240c-wi22-a00-public/data/Assignment2/sphinx3_2520B.trace.xz
CPU 0 Bimodal branch predictor
Basic BTB sets: 1024 ways: 8 indirect buffer size: 4096 RAS size: 64
5th iteration
No hysteresis, common rrpv
Initialize Hawkeye state
Initialize SRRIP state
Heartbeat CPU 0 instructions: 10000000 cycles: 2589704 heartbeat IPC: 3.86145 cumulative IPC: 3.86145 (Simulation time: 0 hr 0 min 19 sec) 

Warmup complete CPU 0 instructions: 10000004 cycles: 2589705 (Simulation time: 0 hr 0 min 19 sec) 

Heartbeat CPU 0 instructions: 20000002 cycles: 9322760 heartbeat IPC: 1.48521 cumulative IPC: 1.48521 (Simulation time: 0 hr 0 min 50 sec) 
Heartbeat CPU 0 instructions: 30000002 cycles: 15539728 heartbeat IPC: 1.6085 cumulative IPC: 1.5444 (Simulation time: 0 hr 1 min 19 sec) 
Heartbeat CPU 0 instructions: 40000002 cycles: 21410947 heartbeat IPC: 1.70322 cumulative IPC: 1.59394 (Simulation time: 0 hr 1 min 47 sec) 
Heartbeat CPU 0 instructions: 50000002 cycles: 27221707 heartbeat IPC: 1.72095 cumulative IPC: 1.6239 (Simulation time: 0 hr 2 min 15 sec) 
Heartbeat CPU 0 instructions: 60000001 cycles: 32973406 heartbeat IPC: 1.73862 cumulative IPC: 1.64562 (Simulation time: 0 hr 2 min 42 sec) 
Heartbeat CPU 0 instructions: 70000004 cycles: 38694788 heartbeat IPC: 1.74783 cumulative IPC: 1.66182 (Simulation time: 0 hr 3 min 11 sec) 
Heartbeat CPU 0 instructions: 80000000 cycles: 44635488 heartbeat IPC: 1.6833 cumulative IPC: 1.66485 (Simulation time: 0 hr 3 min 39 sec) 
Heartbeat CPU 0 instructions: 90000003 cycles: 50228254 heartbeat IPC: 1.78802 cumulative IPC: 1.67931 (Simulation time: 0 hr 4 min 7 sec) 
Heartbeat CPU 0 instructions: 100000002 cycles: 56241645 heartbeat IPC: 1.66296 cumulative IPC: 1.67748 (Simulation time: 0 hr 4 min 36 sec) 
Heartbeat CPU 0 instructions: 110000003 cycles: 64928555 heartbeat IPC: 1.15116 cumulative IPC: 1.60414 (Simulation time: 0 hr 5 min 11 sec) 
Finished CPU 0 instructions: 100000004 cycles: 62338851 cumulative IPC: 1.60414 (Simulation time: 0 hr 5 min 11 sec) 

ChampSim completed all CPUs

Region of Interest Statistics

CPU 0 cumulative IPC: 1.60414 instructions: 100000004 cycles: 62338851
cpu0_DTLB TOTAL     ACCESS:   15995366  HIT:   15939469  MISS:      55897
cpu0_DTLB LOAD      ACCESS:   14967373  HIT:   14914826  MISS:      52547
cpu0_DTLB RFO       ACCESS:    1027993  HIT:    1024643  MISS:       3350
cpu0_DTLB PREFETCH  ACCESS:          0  HIT:          0  MISS:          0
cpu0_DTLB WRITEBACK ACCESS:          0  HIT:          0  MISS:          0
cpu0_DTLB TRANSLATION ACCESS:          0  HIT:          0  MISS:          0
cpu0_DTLB PREFETCH  REQUESTED:          0  ISSUED:          0  USEFUL:          0  USELESS:          0
cpu0_DTLB AVERAGE MISS LATENCY: 11.4033 cycles
cpu0_ITLB TOTAL     ACCESS:    9424924  HIT:    9424882  MISS:         42
cpu0_ITLB LOAD      ACCESS:    9424924  HIT:    9424882  MISS:         42
cpu0_ITLB RFO       ACCESS:          0  HIT:          0  MISS:          0
cpu0_ITLB PREFETCH  ACCESS:          0  HIT:          0  MISS:          0
cpu0_ITLB WRITEBACK ACCESS:          0  HIT:          0  MISS:          0
cpu0_ITLB TRANSLATION ACCESS:          0  HIT:          0  MISS:          0
cpu0_ITLB PREFETCH  REQUESTED:          0  ISSUED:          0  USEFUL:          0  USELESS:          0
cpu0_ITLB AVERAGE MISS LATENCY: 155.286 cycles
cpu0_L1I TOTAL     ACCESS:     267963  HIT:     266666  MISS:       1297
cpu0_L1I LOAD      ACCESS:     267963  HIT:     266666  MISS:       1297
cpu0_L1I RFO       ACCESS:          0  HIT:          0  MISS:          0
cpu0_L1I PREFETCH  ACCESS:          0  HIT:          0  MISS:          0
cpu0_L1I WRITEBACK ACCESS:          0  HIT:          0  MISS:          0
cpu0_L1I TRANSLATION ACCESS:          0  HIT:          0  MISS:          0
cpu0_L1I PREFETCH  REQUESTED:          0  ISSUED:          0  USEFUL:          0  USELESS:          0
cpu0_L1I AVERAGE MISS LATENCY: 166.955 cycles
cpu0_STLB TOTAL     ACCESS:      55939  HIT:      51133  MISS:       4806
cpu0_STLB LOAD      ACCESS:      52589  HIT:      47914  MISS:       4675
cpu0_STLB RFO       ACCESS:       3350  HIT:       3219  MISS:        131
cpu0_STLB PREFETCH  ACCESS:          0  HIT:          0  MISS:          0
cpu0_STLB WRITEBACK ACCESS:          0  HIT:          0  MISS:          0
cpu0_STLB TRANSLATION ACCESS:          0  HIT:          0  MISS:          0
cpu0_STLB PREFETCH  REQUESTED:          0  ISSUED:          0  USEFUL:          0  USELESS:          0
cpu0_STLB AVERAGE MISS LATENCY: 28.7151 cycles
cpu0_L1D TOTAL     ACCESS:   11657514  HIT:   10318125  MISS:    1339389
cpu0_L1D LOAD      ACCESS:   10349352  HIT:    9135612  MISS:    1213740
cpu0_L1D RFO       ACCESS:    1303627  HIT:    1178092  MISS:     125535
cpu0_L1D PREFETCH  ACCESS:          0  HIT:          0  MISS:          0
cpu0_L1D WRITEBACK ACCESS:          0  HIT:          0  MISS:          0
cpu0_L1D TRANSLATION ACCESS:       4535  HIT:       4421  MISS:        114
cpu0_L1D PREFETCH  REQUESTED:          0  ISSUED:          0  USEFUL:          0  USELESS:          0
cpu0_L1D AVERAGE MISS LATENCY: 75.2549 cycles
cpu0_L2C TOTAL     ACCESS:    1472899  HIT:     251122  MISS:    1221777
cpu0_L2C LOAD      ACCESS:    1215037  HIT:     113616  MISS:    1101421
cpu0_L2C RFO       ACCESS:     125535  HIT:       5426  MISS:     120109
cpu0_L2C PREFETCH  ACCESS:          0  HIT:          0  MISS:          0
cpu0_L2C WRITEBACK ACCESS:     132213  HIT:     132051  MISS:        162
cpu0_L2C TRANSLATION ACCESS:        114  HIT:         29  MISS:         85
cpu0_L2C PREFETCH  REQUESTED:          0  ISSUED:          0  USEFUL:          0  USELESS:          0
cpu0_L2C AVERAGE MISS LATENCY: 70.5844 cycles
LLC TOTAL     ACCESS:    1348269  HIT:     990097  MISS:     358172
LLC LOAD      ACCESS:    1101421  HIT:     786249  MISS:     315172
LLC RFO       ACCESS:     120109  HIT:      89708  MISS:      30401
LLC PREFETCH  ACCESS:          0  HIT:          0  MISS:          0
LLC WRITEBACK ACCESS:     126654  HIT:     114110  MISS:      12544
LLC TRANSLATION ACCESS:         85  HIT:         30  MISS:         55
LLC PREFETCH  REQUESTED:          0  ISSUED:          0  USEFUL:          0  USELESS:          0
LLC AVERAGE MISS LATENCY: 169.142 cycles

DRAM Statistics
 CHANNEL 0
 RQ ROW_BUFFER_HIT:      75475  ROW_BUFFER_MISS:     268306
 DBUS AVG_CONGESTED_CYCLE:    3.86468
 WQ ROW_BUFFER_HIT:      13423  ROW_BUFFER_MISS:      19669  FULL:        583


CPU 0 Branch Prediction Accuracy: 93.1904% MPKI: 5.9173 Average ROB Occupancy at Mispredict: 195.086
Branch type MPKI
BRANCH_DIRECT_JUMP: 0.00106
BRANCH_INDIRECT: 0
BRANCH_CONDITIONAL: 5.91482
BRANCH_DIRECT_CALL: 0.00069
BRANCH_INDIRECT_CALL: 3e-05
BRANCH_RETURN: 0.0007

