
*** ChampSim Multicore Out-of-Order Simulator ***

Warmup Instructions: 10000000
Simulation Instructions: 100000000
Number of CPUs: 1
Off-chip DRAM Size: 4 GiB Channels: 1 Width: 64-bit Data Rate: 3200 MT/s

VirtualMemory physical capacity: 8588881920 num_ppages: 2096895
VirtualMemory page size: 4096 log2_page_size: 12

CPU 0 runs /datasets/cs240c-wi22-a00-public/data/Assignment2/tonto_422B.trace.xz
CPU 0 Bimodal branch predictor
Basic BTB sets: 1024 ways: 8 indirect buffer size: 4096 RAS size: 64
5th iteration
No hysteresis, common rrpv
Initialize Hawkeye state
Initialize SRRIP state
Heartbeat CPU 0 instructions: 10000003 cycles: 2501969 heartbeat IPC: 3.99685 cumulative IPC: 3.99685 (Simulation time: 0 hr 0 min 18 sec) 

Warmup complete CPU 0 instructions: 10000003 cycles: 2501969 (Simulation time: 0 hr 0 min 18 sec) 

Heartbeat CPU 0 instructions: 20000000 cycles: 8975831 heartbeat IPC: 1.54467 cumulative IPC: 1.54467 (Simulation time: 0 hr 0 min 47 sec) 
Heartbeat CPU 0 instructions: 30000000 cycles: 15445583 heartbeat IPC: 1.54565 cumulative IPC: 1.54516 (Simulation time: 0 hr 1 min 16 sec) 
Heartbeat CPU 0 instructions: 40000002 cycles: 22042140 heartbeat IPC: 1.51594 cumulative IPC: 1.5353 (Simulation time: 0 hr 1 min 45 sec) 
Heartbeat CPU 0 instructions: 50000000 cycles: 29787070 heartbeat IPC: 1.29117 cumulative IPC: 1.466 (Simulation time: 0 hr 2 min 18 sec) 
Heartbeat CPU 0 instructions: 60000004 cycles: 37544173 heartbeat IPC: 1.28914 cumulative IPC: 1.42685 (Simulation time: 0 hr 2 min 56 sec) 
Heartbeat CPU 0 instructions: 70000004 cycles: 44351758 heartbeat IPC: 1.46895 cumulative IPC: 1.4337 (Simulation time: 0 hr 3 min 30 sec) 
Heartbeat CPU 0 instructions: 80000000 cycles: 51018808 heartbeat IPC: 1.49991 cumulative IPC: 1.4428 (Simulation time: 0 hr 4 min 4 sec) 
Heartbeat CPU 0 instructions: 90000000 cycles: 57963596 heartbeat IPC: 1.43993 cumulative IPC: 1.44244 (Simulation time: 0 hr 4 min 38 sec) 
Heartbeat CPU 0 instructions: 100000002 cycles: 64760234 heartbeat IPC: 1.47132 cumulative IPC: 1.44559 (Simulation time: 0 hr 5 min 11 sec) 
Heartbeat CPU 0 instructions: 110000001 cycles: 71667558 heartbeat IPC: 1.44774 cumulative IPC: 1.44581 (Simulation time: 0 hr 5 min 45 sec) 
Finished CPU 0 instructions: 100000003 cycles: 69165590 cumulative IPC: 1.44581 (Simulation time: 0 hr 5 min 45 sec) 

ChampSim completed all CPUs

Region of Interest Statistics

CPU 0 cumulative IPC: 1.44581 instructions: 100000003 cycles: 69165590
cpu0_DTLB TOTAL     ACCESS:   12821735  HIT:   12785466  MISS:      36269
cpu0_DTLB LOAD      ACCESS:    9456726  HIT:    9430294  MISS:      26432
cpu0_DTLB RFO       ACCESS:    3365009  HIT:    3355172  MISS:       9837
cpu0_DTLB PREFETCH  ACCESS:          0  HIT:          0  MISS:          0
cpu0_DTLB WRITEBACK ACCESS:          0  HIT:          0  MISS:          0
cpu0_DTLB TRANSLATION ACCESS:          0  HIT:          0  MISS:          0
cpu0_DTLB PREFETCH  REQUESTED:          0  ISSUED:          0  USEFUL:          0  USELESS:          0
cpu0_DTLB AVERAGE MISS LATENCY: 13.4086 cycles
cpu0_ITLB TOTAL     ACCESS:    4150445  HIT:    4150414  MISS:         31
cpu0_ITLB LOAD      ACCESS:    4150445  HIT:    4150414  MISS:         31
cpu0_ITLB RFO       ACCESS:          0  HIT:          0  MISS:          0
cpu0_ITLB PREFETCH  ACCESS:          0  HIT:          0  MISS:          0
cpu0_ITLB WRITEBACK ACCESS:          0  HIT:          0  MISS:          0
cpu0_ITLB TRANSLATION ACCESS:          0  HIT:          0  MISS:          0
cpu0_ITLB PREFETCH  REQUESTED:          0  ISSUED:          0  USEFUL:          0  USELESS:          0
cpu0_ITLB AVERAGE MISS LATENCY: 211.161 cycles
cpu0_L1I TOTAL     ACCESS:    6343861  HIT:    6342745  MISS:       1116
cpu0_L1I LOAD      ACCESS:    6343861  HIT:    6342745  MISS:       1116
cpu0_L1I RFO       ACCESS:          0  HIT:          0  MISS:          0
cpu0_L1I PREFETCH  ACCESS:          0  HIT:          0  MISS:          0
cpu0_L1I WRITEBACK ACCESS:          0  HIT:          0  MISS:          0
cpu0_L1I TRANSLATION ACCESS:          0  HIT:          0  MISS:          0
cpu0_L1I PREFETCH  REQUESTED:          0  ISSUED:          0  USEFUL:          0  USELESS:          0
cpu0_L1I AVERAGE MISS LATENCY: 175.497 cycles
cpu0_STLB TOTAL     ACCESS:      36300  HIT:      35638  MISS:        662
cpu0_STLB LOAD      ACCESS:      26463  HIT:      26417  MISS:         46
cpu0_STLB RFO       ACCESS:       9837  HIT:       9221  MISS:        616
cpu0_STLB PREFETCH  ACCESS:          0  HIT:          0  MISS:          0
cpu0_STLB WRITEBACK ACCESS:          0  HIT:          0  MISS:          0
cpu0_STLB TRANSLATION ACCESS:          0  HIT:          0  MISS:          0
cpu0_STLB PREFETCH  REQUESTED:          0  ISSUED:          0  USEFUL:          0  USELESS:          0
cpu0_STLB AVERAGE MISS LATENCY: 250.767 cycles
cpu0_L1D TOTAL     ACCESS:   13830695  HIT:   12616362  MISS:    1214333
cpu0_L1D LOAD      ACCESS:    7743818  HIT:    6946862  MISS:     796956
cpu0_L1D RFO       ACCESS:    6086218  HIT:    5668854  MISS:     417364
cpu0_L1D PREFETCH  ACCESS:          0  HIT:          0  MISS:          0
cpu0_L1D WRITEBACK ACCESS:          0  HIT:          0  MISS:          0
cpu0_L1D TRANSLATION ACCESS:        659  HIT:        646  MISS:         13
cpu0_L1D PREFETCH  REQUESTED:          0  ISSUED:          0  USEFUL:          0  USELESS:          0
cpu0_L1D AVERAGE MISS LATENCY: 85.016 cycles
cpu0_L2C TOTAL     ACCESS:    1652885  HIT:     826780  MISS:     826105
cpu0_L2C LOAD      ACCESS:     798072  HIT:     213804  MISS:     584268
cpu0_L2C RFO       ACCESS:     417364  HIT:     175569  MISS:     241795
cpu0_L2C PREFETCH  ACCESS:          0  HIT:          0  MISS:          0
cpu0_L2C WRITEBACK ACCESS:     437436  HIT:     437403  MISS:         33
cpu0_L2C TRANSLATION ACCESS:         13  HIT:          4  MISS:          9
cpu0_L2C PREFETCH  REQUESTED:          0  ISSUED:          0  USEFUL:          0  USELESS:          0
cpu0_L2C AVERAGE MISS LATENCY: 108.981 cycles
LLC TOTAL     ACCESS:    1190895  HIT:     953773  MISS:     237122
LLC LOAD      ACCESS:     584227  HIT:     435965  MISS:     148262
LLC RFO       ACCESS:     241795  HIT:     183175  MISS:      58620
LLC PREFETCH  ACCESS:          0  HIT:          0  MISS:          0
LLC WRITEBACK ACCESS:     364864  HIT:     334625  MISS:      30239
LLC TRANSLATION ACCESS:          9  HIT:          8  MISS:          1
LLC PREFETCH  REQUESTED:          0  ISSUED:          0  USEFUL:          0  USELESS:          0
LLC AVERAGE MISS LATENCY: 306.452 cycles

DRAM Statistics
 CHANNEL 0
 RQ ROW_BUFFER_HIT:      29287  ROW_BUFFER_MISS:     177048
 DBUS AVG_CONGESTED_CYCLE:    3.97247
 WQ ROW_BUFFER_HIT:      16018  ROW_BUFFER_MISS:     124661  FULL:       9149


CPU 0 Branch Prediction Accuracy: 95.8021% MPKI: 4.07385 Average ROB Occupancy at Mispredict: 71.5681
Branch type MPKI
BRANCH_DIRECT_JUMP: 0.00041
BRANCH_INDIRECT: 5e-05
BRANCH_CONDITIONAL: 4.07099
BRANCH_DIRECT_CALL: 0.00126
BRANCH_INDIRECT_CALL: 0
BRANCH_RETURN: 0.00114

