
*** ChampSim Multicore Out-of-Order Simulator ***

Warmup Instructions: 10000000
Simulation Instructions: 100000000
Number of CPUs: 1
Off-chip DRAM Size: 4 GiB Channels: 1 Width: 64-bit Data Rate: 3200 MT/s

VirtualMemory physical capacity: 8588881920 num_ppages: 2096895
VirtualMemory page size: 4096 log2_page_size: 12

CPU 0 runs /datasets/cs240c-wi22-a00-public/data/Assignment2/xalancbmk_99B.trace.xz
CPU 0 Bimodal branch predictor
Basic BTB sets: 1024 ways: 8 indirect buffer size: 4096 RAS size: 64
5th iteration
No hysteresis, common rrpv
Initialize Hawkeye state
Initialize SRRIP state
Heartbeat CPU 0 instructions: 10000001 cycles: 3058902 heartbeat IPC: 3.26915 cumulative IPC: 3.26915 (Simulation time: 0 hr 0 min 28 sec) 

Warmup complete CPU 0 instructions: 10000001 cycles: 3058902 (Simulation time: 0 hr 0 min 28 sec) 

Heartbeat CPU 0 instructions: 20000003 cycles: 38038295 heartbeat IPC: 0.285883 cumulative IPC: 0.285883 (Simulation time: 0 hr 1 min 16 sec) 
Heartbeat CPU 0 instructions: 30000000 cycles: 74924577 heartbeat IPC: 0.271103 cumulative IPC: 0.278297 (Simulation time: 0 hr 2 min 7 sec) 
Heartbeat CPU 0 instructions: 40000000 cycles: 110528626 heartbeat IPC: 0.280867 cumulative IPC: 0.279148 (Simulation time: 0 hr 2 min 57 sec) 
Heartbeat CPU 0 instructions: 50000001 cycles: 148170878 heartbeat IPC: 0.265659 cumulative IPC: 0.275649 (Simulation time: 0 hr 3 min 48 sec) 
Heartbeat CPU 0 instructions: 60000002 cycles: 184605235 heartbeat IPC: 0.274466 cumulative IPC: 0.275412 (Simulation time: 0 hr 5 min 21 sec) 
Heartbeat CPU 0 instructions: 70000002 cycles: 220287535 heartbeat IPC: 0.280251 cumulative IPC: 0.276207 (Simulation time: 0 hr 7 min 0 sec) 
Heartbeat CPU 0 instructions: 80000001 cycles: 257371622 heartbeat IPC: 0.269657 cumulative IPC: 0.275252 (Simulation time: 0 hr 8 min 36 sec) 
Heartbeat CPU 0 instructions: 90000000 cycles: 293620909 heartbeat IPC: 0.275867 cumulative IPC: 0.275328 (Simulation time: 0 hr 10 min 7 sec) 
Heartbeat CPU 0 instructions: 100000000 cycles: 329746552 heartbeat IPC: 0.276812 cumulative IPC: 0.275493 (Simulation time: 0 hr 11 min 16 sec) 
Heartbeat CPU 0 instructions: 110000001 cycles: 363290119 heartbeat IPC: 0.29812 cumulative IPC: 0.277599 (Simulation time: 0 hr 12 min 12 sec) 
Finished CPU 0 instructions: 100000000 cycles: 360231217 cumulative IPC: 0.277599 (Simulation time: 0 hr 12 min 12 sec) 

ChampSim completed all CPUs

Region of Interest Statistics

CPU 0 cumulative IPC: 0.277599 instructions: 100000000 cycles: 360231217
cpu0_DTLB TOTAL     ACCESS:   22809198  HIT:   22248556  MISS:     560642
cpu0_DTLB LOAD      ACCESS:   21429963  HIT:   20878867  MISS:     551096
cpu0_DTLB RFO       ACCESS:    1379235  HIT:    1369689  MISS:       9546
cpu0_DTLB PREFETCH  ACCESS:          0  HIT:          0  MISS:          0
cpu0_DTLB WRITEBACK ACCESS:          0  HIT:          0  MISS:          0
cpu0_DTLB TRANSLATION ACCESS:          0  HIT:          0  MISS:          0
cpu0_DTLB PREFETCH  REQUESTED:          0  ISSUED:          0  USEFUL:          0  USELESS:          0
cpu0_DTLB AVERAGE MISS LATENCY: 37.5618 cycles
cpu0_ITLB TOTAL     ACCESS:   13331757  HIT:   13304399  MISS:      27358
cpu0_ITLB LOAD      ACCESS:   13331757  HIT:   13304399  MISS:      27358
cpu0_ITLB RFO       ACCESS:          0  HIT:          0  MISS:          0
cpu0_ITLB PREFETCH  ACCESS:          0  HIT:          0  MISS:          0
cpu0_ITLB WRITEBACK ACCESS:          0  HIT:          0  MISS:          0
cpu0_ITLB TRANSLATION ACCESS:          0  HIT:          0  MISS:          0
cpu0_ITLB PREFETCH  REQUESTED:          0  ISSUED:          0  USEFUL:          0  USELESS:          0
cpu0_ITLB AVERAGE MISS LATENCY: 10.9205 cycles
cpu0_L1I TOTAL     ACCESS:     670787  HIT:     563713  MISS:     107074
cpu0_L1I LOAD      ACCESS:     670787  HIT:     563713  MISS:     107074
cpu0_L1I RFO       ACCESS:          0  HIT:          0  MISS:          0
cpu0_L1I PREFETCH  ACCESS:          0  HIT:          0  MISS:          0
cpu0_L1I WRITEBACK ACCESS:          0  HIT:          0  MISS:          0
cpu0_L1I TRANSLATION ACCESS:          0  HIT:          0  MISS:          0
cpu0_L1I PREFETCH  REQUESTED:          0  ISSUED:          0  USEFUL:          0  USELESS:          0
cpu0_L1I AVERAGE MISS LATENCY: 28.0228 cycles
cpu0_STLB TOTAL     ACCESS:     588000  HIT:     172987  MISS:     415013
cpu0_STLB LOAD      ACCESS:     578454  HIT:     164977  MISS:     413477
cpu0_STLB RFO       ACCESS:       9546  HIT:       8010  MISS:       1536
cpu0_STLB PREFETCH  ACCESS:          0  HIT:          0  MISS:          0
cpu0_STLB WRITEBACK ACCESS:          0  HIT:          0  MISS:          0
cpu0_STLB TRANSLATION ACCESS:          0  HIT:          0  MISS:          0
cpu0_STLB PREFETCH  REQUESTED:          0  ISSUED:          0  USEFUL:          0  USELESS:          0
cpu0_STLB AVERAGE MISS LATENCY: 38.6355 cycles
cpu0_L1D TOTAL     ACCESS:   17697690  HIT:   14552547  MISS:    3145143
cpu0_L1D LOAD      ACCESS:   15457462  HIT:   12330227  MISS:    3127235
cpu0_L1D RFO       ACCESS:    1870301  HIT:    1858344  MISS:      11957
cpu0_L1D PREFETCH  ACCESS:          0  HIT:          0  MISS:          0
cpu0_L1D WRITEBACK ACCESS:          0  HIT:          0  MISS:          0
cpu0_L1D TRANSLATION ACCESS:     369927  HIT:     363976  MISS:       5951
cpu0_L1D PREFETCH  REQUESTED:          0  ISSUED:          0  USEFUL:          0  USELESS:          0
cpu0_L1D AVERAGE MISS LATENCY: 152.54 cycles
cpu0_L2C TOTAL     ACCESS:    3280030  HIT:     136196  MISS:    3143834
cpu0_L2C LOAD      ACCESS:    3234299  HIT:     101474  MISS:    3132825
cpu0_L2C RFO       ACCESS:      11953  HIT:       2660  MISS:       9293
cpu0_L2C PREFETCH  ACCESS:          0  HIT:          0  MISS:          0
cpu0_L2C WRITEBACK ACCESS:      27827  HIT:      27438  MISS:        389
cpu0_L2C TRANSLATION ACCESS:       5951  HIT:       4624  MISS:       1327
cpu0_L2C PREFETCH  REQUESTED:          0  ISSUED:          0  USEFUL:          0  USELESS:          0
cpu0_L2C AVERAGE MISS LATENCY: 142.023 cycles
LLC TOTAL     ACCESS:    3163860  HIT:     718082  MISS:    2445778
LLC LOAD      ACCESS:    3132825  HIT:     696405  MISS:    2436420
LLC RFO       ACCESS:       9292  HIT:       4673  MISS:       4619
LLC PREFETCH  ACCESS:          0  HIT:          0  MISS:          0
LLC WRITEBACK ACCESS:      20416  HIT:      16354  MISS:       4062
LLC TRANSLATION ACCESS:       1327  HIT:        650  MISS:        677
LLC PREFETCH  REQUESTED:          0  ISSUED:          0  USEFUL:          0  USELESS:          0
LLC AVERAGE MISS LATENCY: 155.568 cycles

DRAM Statistics
 CHANNEL 0
 RQ ROW_BUFFER_HIT:     636853  ROW_BUFFER_MISS:    1804863
 DBUS AVG_CONGESTED_CYCLE:    3.91875
 WQ ROW_BUFFER_HIT:       3083  ROW_BUFFER_MISS:       3255  FULL:          0


CPU 0 Branch Prediction Accuracy: 90.7444% MPKI: 27.9345 Average ROB Occupancy at Mispredict: 19.3417
Branch type MPKI
BRANCH_DIRECT_JUMP: 0.00034
BRANCH_INDIRECT: 0.0087
BRANCH_CONDITIONAL: 27.8577
BRANCH_DIRECT_CALL: 0.00024
BRANCH_INDIRECT_CALL: 0.02508
BRANCH_RETURN: 0.04245

