
*** ChampSim Multicore Out-of-Order Simulator ***

Warmup Instructions: 50000000
Simulation Instructions: 250000000
Number of CPUs: 1
Off-chip DRAM Size: 4 GiB Channels: 1 Width: 64-bit Data Rate: 3200 MT/s

VirtualMemory physical capacity: 8588881920 num_ppages: 2096895
VirtualMemory page size: 4096 log2_page_size: 12

CPU 0 runs /datasets/cs240c-wi22-a00-public/data/Assignment2/hmmer_397B.trace.xz
CPU 0 Bimodal branch predictor
Basic BTB sets: 1024 ways: 8 indirect buffer size: 4096 RAS size: 64
Initialize Hawkeye state
Initialize SRRIP state
Heartbeat CPU 0 instructions: 10000000 cycles: 3996187 heartbeat IPC: 2.50239 cumulative IPC: 2.50239 (Simulation time: 0 hr 0 min 47 sec) 
Heartbeat CPU 0 instructions: 20000001 cycles: 7985284 heartbeat IPC: 2.50683 cumulative IPC: 2.50461 (Simulation time: 0 hr 1 min 34 sec) 
Heartbeat CPU 0 instructions: 30000001 cycles: 11968238 heartbeat IPC: 2.5107 cumulative IPC: 2.50663 (Simulation time: 0 hr 2 min 22 sec) 
Heartbeat CPU 0 instructions: 40000002 cycles: 15964048 heartbeat IPC: 2.50262 cumulative IPC: 2.50563 (Simulation time: 0 hr 3 min 13 sec) 
Heartbeat CPU 0 instructions: 50000001 cycles: 19952582 heartbeat IPC: 2.50719 cumulative IPC: 2.50594 (Simulation time: 0 hr 4 min 1 sec) 

Warmup complete CPU 0 instructions: 50000001 cycles: 19952582 (Simulation time: 0 hr 4 min 1 sec) 

Heartbeat CPU 0 instructions: 60000002 cycles: 25027443 heartbeat IPC: 1.9705 cumulative IPC: 1.9705 (Simulation time: 0 hr 5 min 9 sec) 
Heartbeat CPU 0 instructions: 70000004 cycles: 29451173 heartbeat IPC: 2.26054 cumulative IPC: 2.10558 (Simulation time: 0 hr 6 min 14 sec) 
Heartbeat CPU 0 instructions: 80000000 cycles: 33804500 heartbeat IPC: 2.29709 cumulative IPC: 2.16577 (Simulation time: 0 hr 7 min 17 sec) 
Heartbeat CPU 0 instructions: 90000004 cycles: 38164004 heartbeat IPC: 2.29384 cumulative IPC: 2.19642 (Simulation time: 0 hr 8 min 22 sec) 
Heartbeat CPU 0 instructions: 100000003 cycles: 42499140 heartbeat IPC: 2.30673 cumulative IPC: 2.21763 (Simulation time: 0 hr 9 min 28 sec) 
Heartbeat CPU 0 instructions: 110000001 cycles: 46846096 heartbeat IPC: 2.30046 cumulative IPC: 2.23102 (Simulation time: 0 hr 10 min 34 sec) 
Heartbeat CPU 0 instructions: 120000001 cycles: 51190077 heartbeat IPC: 2.30204 cumulative IPC: 2.2409 (Simulation time: 0 hr 11 min 40 sec) 
Heartbeat CPU 0 instructions: 130000000 cycles: 55540944 heartbeat IPC: 2.29839 cumulative IPC: 2.24793 (Simulation time: 0 hr 12 min 49 sec) 
Heartbeat CPU 0 instructions: 140000003 cycles: 59885550 heartbeat IPC: 2.30171 cumulative IPC: 2.25378 (Simulation time: 0 hr 14 min 1 sec) 
Heartbeat CPU 0 instructions: 150000000 cycles: 64226371 heartbeat IPC: 2.30371 cumulative IPC: 2.25867 (Simulation time: 0 hr 15 min 10 sec) 
Heartbeat CPU 0 instructions: 160000003 cycles: 69300341 heartbeat IPC: 1.97084 cumulative IPC: 2.22908 (Simulation time: 0 hr 16 min 23 sec) 
Heartbeat CPU 0 instructions: 170000000 cycles: 73732508 heartbeat IPC: 2.25623 cumulative IPC: 2.23132 (Simulation time: 0 hr 17 min 35 sec) 
Heartbeat CPU 0 instructions: 180000004 cycles: 78730206 heartbeat IPC: 2.00092 cumulative IPC: 2.21173 (Simulation time: 0 hr 18 min 50 sec) 
Heartbeat CPU 0 instructions: 190000003 cycles: 83210265 heartbeat IPC: 2.23211 cumulative IPC: 2.21317 (Simulation time: 0 hr 20 min 4 sec) 
Heartbeat CPU 0 instructions: 200000001 cycles: 88125844 heartbeat IPC: 2.03435 cumulative IPC: 2.20028 (Simulation time: 0 hr 21 min 18 sec) 
Heartbeat CPU 0 instructions: 210000000 cycles: 92815246 heartbeat IPC: 2.13247 cumulative IPC: 2.19591 (Simulation time: 0 hr 22 min 30 sec) 
Heartbeat CPU 0 instructions: 220000003 cycles: 97491704 heartbeat IPC: 2.13837 cumulative IPC: 2.19244 (Simulation time: 0 hr 23 min 44 sec) 
Heartbeat CPU 0 instructions: 230000000 cycles: 102400219 heartbeat IPC: 2.03728 cumulative IPC: 2.1832 (Simulation time: 0 hr 24 min 57 sec) 
Heartbeat CPU 0 instructions: 240000002 cycles: 106834591 heartbeat IPC: 2.25511 cumulative IPC: 2.18687 (Simulation time: 0 hr 26 min 7 sec) 
Heartbeat CPU 0 instructions: 250000004 cycles: 111765746 heartbeat IPC: 2.02792 cumulative IPC: 2.17834 (Simulation time: 0 hr 27 min 21 sec) 
Heartbeat CPU 0 instructions: 260000001 cycles: 116214515 heartbeat IPC: 2.24781 cumulative IPC: 2.18155 (Simulation time: 0 hr 28 min 34 sec) 
Heartbeat CPU 0 instructions: 270000001 cycles: 120987586 heartbeat IPC: 2.09509 cumulative IPC: 2.17746 (Simulation time: 0 hr 29 min 47 sec) 
Heartbeat CPU 0 instructions: 280000000 cycles: 125669390 heartbeat IPC: 2.13593 cumulative IPC: 2.17562 (Simulation time: 0 hr 30 min 55 sec) 
Heartbeat CPU 0 instructions: 290000003 cycles: 130138025 heartbeat IPC: 2.23782 cumulative IPC: 2.17815 (Simulation time: 0 hr 32 min 4 sec) 
Heartbeat CPU 0 instructions: 300000001 cycles: 134817832 heartbeat IPC: 2.13684 cumulative IPC: 2.17646 (Simulation time: 0 hr 33 min 17 sec) 
Finished CPU 0 instructions: 250000000 cycles: 114865250 cumulative IPC: 2.17646 (Simulation time: 0 hr 33 min 17 sec) 

ChampSim completed all CPUs

Region of Interest Statistics

CPU 0 cumulative IPC: 2.17646 instructions: 250000000 cycles: 114865250
cpu0_DTLB TOTAL     ACCESS:  101174410  HIT:  101157267  MISS:      17143
cpu0_DTLB LOAD      ACCESS:   80784729  HIT:   80779918  MISS:       4811
cpu0_DTLB RFO       ACCESS:   20389681  HIT:   20377349  MISS:      12332
cpu0_DTLB PREFETCH  ACCESS:          0  HIT:          0  MISS:          0
cpu0_DTLB WRITEBACK ACCESS:          0  HIT:          0  MISS:          0
cpu0_DTLB TRANSLATION ACCESS:          0  HIT:          0  MISS:          0
cpu0_DTLB PREFETCH  REQUESTED:          0  ISSUED:          0  USEFUL:          0  USELESS:          0
cpu0_DTLB AVERAGE MISS LATENCY: 9.11147 cycles
cpu0_ITLB TOTAL     ACCESS:    1977515  HIT:    1977383  MISS:        132
cpu0_ITLB LOAD      ACCESS:    1977515  HIT:    1977383  MISS:        132
cpu0_ITLB RFO       ACCESS:          0  HIT:          0  MISS:          0
cpu0_ITLB PREFETCH  ACCESS:          0  HIT:          0  MISS:          0
cpu0_ITLB WRITEBACK ACCESS:          0  HIT:          0  MISS:          0
cpu0_ITLB TRANSLATION ACCESS:          0  HIT:          0  MISS:          0
cpu0_ITLB PREFETCH  REQUESTED:          0  ISSUED:          0  USEFUL:          0  USELESS:          0
cpu0_ITLB AVERAGE MISS LATENCY: 16.7727 cycles
cpu0_L1I TOTAL     ACCESS:     141788  HIT:     141750  MISS:         38
cpu0_L1I LOAD      ACCESS:     141788  HIT:     141750  MISS:         38
cpu0_L1I RFO       ACCESS:          0  HIT:          0  MISS:          0
cpu0_L1I PREFETCH  ACCESS:          0  HIT:          0  MISS:          0
cpu0_L1I WRITEBACK ACCESS:          0  HIT:          0  MISS:          0
cpu0_L1I TRANSLATION ACCESS:          0  HIT:          0  MISS:          0
cpu0_L1I PREFETCH  REQUESTED:          0  ISSUED:          0  USEFUL:          0  USELESS:          0
cpu0_L1I AVERAGE MISS LATENCY: 166.132 cycles
cpu0_STLB TOTAL     ACCESS:      17275  HIT:      17265  MISS:         10
cpu0_STLB LOAD      ACCESS:       4943  HIT:       4937  MISS:          6
cpu0_STLB RFO       ACCESS:      12332  HIT:      12328  MISS:          4
cpu0_STLB PREFETCH  ACCESS:          0  HIT:          0  MISS:          0
cpu0_STLB WRITEBACK ACCESS:          0  HIT:          0  MISS:          0
cpu0_STLB TRANSLATION ACCESS:          0  HIT:          0  MISS:          0
cpu0_STLB PREFETCH  REQUESTED:          0  ISSUED:          0  USEFUL:          0  USELESS:          0
cpu0_STLB AVERAGE MISS LATENCY: 283.8 cycles
cpu0_L1D TOTAL     ACCESS:   82211338  HIT:   81029050  MISS:    1182288
cpu0_L1D LOAD      ACCESS:   71673562  HIT:   71262000  MISS:     411562
cpu0_L1D RFO       ACCESS:   10537766  HIT:    9767045  MISS:     770721
cpu0_L1D PREFETCH  ACCESS:          0  HIT:          0  MISS:          0
cpu0_L1D WRITEBACK ACCESS:          0  HIT:          0  MISS:          0
cpu0_L1D TRANSLATION ACCESS:         10  HIT:          5  MISS:          5
cpu0_L1D PREFETCH  REQUESTED:          0  ISSUED:          0  USEFUL:          0  USELESS:          0
cpu0_L1D AVERAGE MISS LATENCY: 273.634 cycles
cpu0_L2C TOTAL     ACCESS:    1948251  HIT:    1195803  MISS:     752448
cpu0_L2C LOAD      ACCESS:     411600  HIT:     377770  MISS:      33830
cpu0_L2C RFO       ACCESS:     770721  HIT:      52188  MISS:     718533
cpu0_L2C PREFETCH  ACCESS:          0  HIT:          0  MISS:          0
cpu0_L2C WRITEBACK ACCESS:     765925  HIT:     765845  MISS:         80
cpu0_L2C TRANSLATION ACCESS:          5  HIT:          0  MISS:          5
cpu0_L2C PREFETCH  REQUESTED:          0  ISSUED:          0  USEFUL:          0  USELESS:          0
cpu0_L2C AVERAGE MISS LATENCY: 412.66 cycles
LLC TOTAL     ACCESS:    1467122  HIT:     921318  MISS:     545804
LLC LOAD      ACCESS:      33830  HIT:      26528  MISS:       7302
LLC RFO       ACCESS:     718341  HIT:     384934  MISS:     333407
LLC PREFETCH  ACCESS:          0  HIT:          0  MISS:          0
LLC WRITEBACK ACCESS:     714946  HIT:     509854  MISS:     205092
LLC TRANSLATION ACCESS:          5  HIT:          2  MISS:          3
LLC PREFETCH  REQUESTED:          0  ISSUED:          0  USEFUL:          0  USELESS:          0
LLC AVERAGE MISS LATENCY: 539.954 cycles
Ship++ misses: 14174
Hawkeye misses: 14835
Ship++ used: 223438
Hawkeye used: 500381

DRAM Statistics
 CHANNEL 0
 RQ ROW_BUFFER_HIT:       6122  ROW_BUFFER_MISS:     334572
 DBUS AVG_CONGESTED_CYCLE:    3.99222
 WQ ROW_BUFFER_HIT:      27410  ROW_BUFFER_MISS:     307043  FULL:       9203


CPU 0 Branch Prediction Accuracy: 98.9639% MPKI: 0.397116 Average ROB Occupancy at Mispredict: 259.472
Branch type MPKI
BRANCH_DIRECT_JUMP: 3.2e-05
BRANCH_INDIRECT: 0.00124
BRANCH_CONDITIONAL: 0.395788
BRANCH_DIRECT_CALL: 1.6e-05
BRANCH_INDIRECT_CALL: 1.6e-05
BRANCH_RETURN: 2.4e-05

