
*** ChampSim Multicore Out-of-Order Simulator ***

Warmup Instructions: 50000000
Simulation Instructions: 250000000
Number of CPUs: 1
Off-chip DRAM Size: 4 GiB Channels: 1 Width: 64-bit Data Rate: 3200 MT/s

VirtualMemory physical capacity: 8588881920 num_ppages: 2096895
VirtualMemory page size: 4096 log2_page_size: 12

CPU 0 runs /datasets/cs240c-wi22-a00-public/data/Assignment2/hmmer_7B.trace.xz
CPU 0 Bimodal branch predictor
Basic BTB sets: 1024 ways: 8 indirect buffer size: 4096 RAS size: 64
Initialize Hawkeye state
Initialize SRRIP state
Heartbeat CPU 0 instructions: 10000004 cycles: 3986065 heartbeat IPC: 2.50874 cumulative IPC: 2.50874 (Simulation time: 0 hr 0 min 50 sec) 
Heartbeat CPU 0 instructions: 20000001 cycles: 7982094 heartbeat IPC: 2.50248 cumulative IPC: 2.50561 (Simulation time: 0 hr 1 min 38 sec) 
Heartbeat CPU 0 instructions: 30000004 cycles: 11963717 heartbeat IPC: 2.51154 cumulative IPC: 2.50758 (Simulation time: 0 hr 2 min 29 sec) 
Heartbeat CPU 0 instructions: 40000000 cycles: 15959574 heartbeat IPC: 2.50259 cumulative IPC: 2.50633 (Simulation time: 0 hr 3 min 19 sec) 
Heartbeat CPU 0 instructions: 50000001 cycles: 19944917 heartbeat IPC: 2.50919 cumulative IPC: 2.5069 (Simulation time: 0 hr 4 min 14 sec) 

Warmup complete CPU 0 instructions: 50000001 cycles: 19944917 (Simulation time: 0 hr 4 min 14 sec) 

Heartbeat CPU 0 instructions: 60000000 cycles: 24271602 heartbeat IPC: 2.31124 cumulative IPC: 2.31124 (Simulation time: 0 hr 5 min 26 sec) 
Heartbeat CPU 0 instructions: 70000003 cycles: 28592980 heartbeat IPC: 2.31408 cumulative IPC: 2.31266 (Simulation time: 0 hr 6 min 34 sec) 
Heartbeat CPU 0 instructions: 80000001 cycles: 32902697 heartbeat IPC: 2.32034 cumulative IPC: 2.31521 (Simulation time: 0 hr 7 min 45 sec) 
Heartbeat CPU 0 instructions: 90000004 cycles: 37222366 heartbeat IPC: 2.31499 cumulative IPC: 2.31516 (Simulation time: 0 hr 8 min 56 sec) 
Heartbeat CPU 0 instructions: 100000002 cycles: 41541356 heartbeat IPC: 2.31536 cumulative IPC: 2.3152 (Simulation time: 0 hr 10 min 7 sec) 
Heartbeat CPU 0 instructions: 110000001 cycles: 45870083 heartbeat IPC: 2.31015 cumulative IPC: 2.31435 (Simulation time: 0 hr 11 min 19 sec) 
Heartbeat CPU 0 instructions: 120000000 cycles: 50204805 heartbeat IPC: 2.30695 cumulative IPC: 2.31329 (Simulation time: 0 hr 12 min 29 sec) 
Heartbeat CPU 0 instructions: 130000004 cycles: 54520639 heartbeat IPC: 2.31705 cumulative IPC: 2.31376 (Simulation time: 0 hr 13 min 41 sec) 
Heartbeat CPU 0 instructions: 140000003 cycles: 58848057 heartbeat IPC: 2.31085 cumulative IPC: 2.31344 (Simulation time: 0 hr 14 min 50 sec) 
Heartbeat CPU 0 instructions: 150000002 cycles: 63159984 heartbeat IPC: 2.31915 cumulative IPC: 2.31401 (Simulation time: 0 hr 15 min 59 sec) 
Heartbeat CPU 0 instructions: 160000002 cycles: 67490459 heartbeat IPC: 2.30922 cumulative IPC: 2.31357 (Simulation time: 0 hr 17 min 10 sec) 
Heartbeat CPU 0 instructions: 170000001 cycles: 71802519 heartbeat IPC: 2.31908 cumulative IPC: 2.31403 (Simulation time: 0 hr 18 min 23 sec) 
Heartbeat CPU 0 instructions: 180000003 cycles: 76125865 heartbeat IPC: 2.31302 cumulative IPC: 2.31395 (Simulation time: 0 hr 19 min 32 sec) 
Heartbeat CPU 0 instructions: 190000004 cycles: 80448456 heartbeat IPC: 2.31343 cumulative IPC: 2.31391 (Simulation time: 0 hr 20 min 47 sec) 
Heartbeat CPU 0 instructions: 200000002 cycles: 84759972 heartbeat IPC: 2.31937 cumulative IPC: 2.31428 (Simulation time: 0 hr 21 min 58 sec) 
Heartbeat CPU 0 instructions: 210000003 cycles: 89082895 heartbeat IPC: 2.31325 cumulative IPC: 2.31421 (Simulation time: 0 hr 23 min 11 sec) 
Heartbeat CPU 0 instructions: 220000004 cycles: 93430387 heartbeat IPC: 2.30018 cumulative IPC: 2.31338 (Simulation time: 0 hr 24 min 25 sec) 
Heartbeat CPU 0 instructions: 230000003 cycles: 97761705 heartbeat IPC: 2.30877 cumulative IPC: 2.31313 (Simulation time: 0 hr 25 min 36 sec) 
Heartbeat CPU 0 instructions: 240000001 cycles: 102090362 heartbeat IPC: 2.31018 cumulative IPC: 2.31297 (Simulation time: 0 hr 26 min 46 sec) 
Heartbeat CPU 0 instructions: 250000002 cycles: 106409867 heartbeat IPC: 2.31508 cumulative IPC: 2.31308 (Simulation time: 0 hr 27 min 56 sec) 
Heartbeat CPU 0 instructions: 260000001 cycles: 110726241 heartbeat IPC: 2.31676 cumulative IPC: 2.31325 (Simulation time: 0 hr 29 min 9 sec) 
Heartbeat CPU 0 instructions: 270000002 cycles: 115097891 heartbeat IPC: 2.28747 cumulative IPC: 2.31207 (Simulation time: 0 hr 30 min 21 sec) 
Heartbeat CPU 0 instructions: 280000002 cycles: 119431284 heartbeat IPC: 2.30766 cumulative IPC: 2.31187 (Simulation time: 0 hr 31 min 31 sec) 
Heartbeat CPU 0 instructions: 290000002 cycles: 123759901 heartbeat IPC: 2.31021 cumulative IPC: 2.31181 (Simulation time: 0 hr 32 min 44 sec) 
Heartbeat CPU 0 instructions: 300000000 cycles: 128081048 heartbeat IPC: 2.3142 cumulative IPC: 2.3119 (Simulation time: 0 hr 33 min 55 sec) 
Finished CPU 0 instructions: 250000000 cycles: 108136135 cumulative IPC: 2.3119 (Simulation time: 0 hr 33 min 55 sec) 

ChampSim completed all CPUs

Region of Interest Statistics

CPU 0 cumulative IPC: 2.3119 instructions: 250000000 cycles: 108136135
cpu0_DTLB TOTAL     ACCESS:  101353778  HIT:  101318469  MISS:      35309
cpu0_DTLB LOAD      ACCESS:   80977320  HIT:   80958324  MISS:      18996
cpu0_DTLB RFO       ACCESS:   20376458  HIT:   20360145  MISS:      16313
cpu0_DTLB PREFETCH  ACCESS:          0  HIT:          0  MISS:          0
cpu0_DTLB WRITEBACK ACCESS:          0  HIT:          0  MISS:          0
cpu0_DTLB TRANSLATION ACCESS:          0  HIT:          0  MISS:          0
cpu0_DTLB PREFETCH  REQUESTED:          0  ISSUED:          0  USEFUL:          0  USELESS:          0
cpu0_DTLB AVERAGE MISS LATENCY: 9.00467 cycles
cpu0_ITLB TOTAL     ACCESS:    2019223  HIT:    2019079  MISS:        144
cpu0_ITLB LOAD      ACCESS:    2019223  HIT:    2019079  MISS:        144
cpu0_ITLB RFO       ACCESS:          0  HIT:          0  MISS:          0
cpu0_ITLB PREFETCH  ACCESS:          0  HIT:          0  MISS:          0
cpu0_ITLB WRITEBACK ACCESS:          0  HIT:          0  MISS:          0
cpu0_ITLB TRANSLATION ACCESS:          0  HIT:          0  MISS:          0
cpu0_ITLB PREFETCH  REQUESTED:          0  ISSUED:          0  USEFUL:          0  USELESS:          0
cpu0_ITLB AVERAGE MISS LATENCY: 9 cycles
cpu0_L1I TOTAL     ACCESS:     155276  HIT:     155201  MISS:         75
cpu0_L1I LOAD      ACCESS:     155276  HIT:     155201  MISS:         75
cpu0_L1I RFO       ACCESS:          0  HIT:          0  MISS:          0
cpu0_L1I PREFETCH  ACCESS:          0  HIT:          0  MISS:          0
cpu0_L1I WRITEBACK ACCESS:          0  HIT:          0  MISS:          0
cpu0_L1I TRANSLATION ACCESS:          0  HIT:          0  MISS:          0
cpu0_L1I PREFETCH  REQUESTED:          0  ISSUED:          0  USEFUL:          0  USELESS:          0
cpu0_L1I AVERAGE MISS LATENCY: 62.32 cycles
cpu0_STLB TOTAL     ACCESS:      35453  HIT:      35453  MISS:          0
cpu0_STLB LOAD      ACCESS:      19140  HIT:      19140  MISS:          0
cpu0_STLB RFO       ACCESS:      16313  HIT:      16313  MISS:          0
cpu0_STLB PREFETCH  ACCESS:          0  HIT:          0  MISS:          0
cpu0_STLB WRITEBACK ACCESS:          0  HIT:          0  MISS:          0
cpu0_STLB TRANSLATION ACCESS:          0  HIT:          0  MISS:          0
cpu0_STLB PREFETCH  REQUESTED:          0  ISSUED:          0  USEFUL:          0  USELESS:          0
cpu0_STLB AVERAGE MISS LATENCY: -nan cycles
cpu0_L1D TOTAL     ACCESS:   86625809  HIT:   85455418  MISS:    1170391
cpu0_L1D LOAD      ACCESS:   71706031  HIT:   71306167  MISS:     399864
cpu0_L1D RFO       ACCESS:   14919778  HIT:   14149251  MISS:     770527
cpu0_L1D PREFETCH  ACCESS:          0  HIT:          0  MISS:          0
cpu0_L1D WRITEBACK ACCESS:          0  HIT:          0  MISS:          0
cpu0_L1D TRANSLATION ACCESS:          0  HIT:          0  MISS:          0
cpu0_L1D PREFETCH  REQUESTED:          0  ISSUED:          0  USEFUL:          0  USELESS:          0
cpu0_L1D AVERAGE MISS LATENCY: 36.6547 cycles
cpu0_L2C TOTAL     ACCESS:    1942863  HIT:    1151630  MISS:     791233
cpu0_L2C LOAD      ACCESS:     399939  HIT:     367802  MISS:      32137
cpu0_L2C RFO       ACCESS:     770527  HIT:      11569  MISS:     758958
cpu0_L2C PREFETCH  ACCESS:          0  HIT:          0  MISS:          0
cpu0_L2C WRITEBACK ACCESS:     772397  HIT:     772259  MISS:        138
cpu0_L2C TRANSLATION ACCESS:          0  HIT:          0  MISS:          0
cpu0_L2C PREFETCH  REQUESTED:          0  ISSUED:          0  USEFUL:          0  USELESS:          0
cpu0_L2C AVERAGE MISS LATENCY: 37.9401 cycles
LLC TOTAL     ACCESS:    1553546  HIT:    1491457  MISS:      62089
LLC LOAD      ACCESS:      32136  HIT:      30381  MISS:       1755
LLC RFO       ACCESS:     758958  HIT:     718657  MISS:      40301
LLC PREFETCH  ACCESS:          0  HIT:          0  MISS:          0
LLC WRITEBACK ACCESS:     762452  HIT:     742419  MISS:      20033
LLC TRANSLATION ACCESS:          0  HIT:          0  MISS:          0
LLC PREFETCH  REQUESTED:          0  ISSUED:          0  USEFUL:          0  USELESS:          0
LLC AVERAGE MISS LATENCY: 215.923 cycles
Ship++ misses: 4828
Hawkeye misses: 5570
Ship++ used: 100490
Hawkeye used: 111257

DRAM Statistics
 CHANNEL 0
 RQ ROW_BUFFER_HIT:       2650  ROW_BUFFER_MISS:      39400
 DBUS AVG_CONGESTED_CYCLE:    3.98018
 WQ ROW_BUFFER_HIT:       6194  ROW_BUFFER_MISS:      36384  FULL:          0


CPU 0 Branch Prediction Accuracy: 98.9473% MPKI: 0.403556 Average ROB Occupancy at Mispredict: 255.07
Branch type MPKI
BRANCH_DIRECT_JUMP: 8e-06
BRANCH_INDIRECT: 0.001336
BRANCH_CONDITIONAL: 0.4022
BRANCH_DIRECT_CALL: 0
BRANCH_INDIRECT_CALL: 1.2e-05
BRANCH_RETURN: 0

