
*** ChampSim Multicore Out-of-Order Simulator ***

Warmup Instructions: 10000000
Simulation Instructions: 100000000
Number of CPUs: 1
Off-chip DRAM Size: 4 GiB Channels: 1 Width: 64-bit Data Rate: 3200 MT/s

VirtualMemory physical capacity: 8588881920 num_ppages: 2096895
VirtualMemory page size: 4096 log2_page_size: 12

CPU 0 runs /datasets/cs240c-wi22-a00-public/data/Assignment2/milc_360B.trace.xz
CPU 0 Bimodal branch predictor
Basic BTB sets: 1024 ways: 8 indirect buffer size: 4096 RAS size: 64
Initialize Hawkeye state
Initialize SRRIP state
Heartbeat CPU 0 instructions: 10000001 cycles: 2500103 heartbeat IPC: 3.99984 cumulative IPC: 3.99984 (Simulation time: 0 hr 0 min 31 sec) 

Warmup complete CPU 0 instructions: 10000001 cycles: 2500103 (Simulation time: 0 hr 0 min 31 sec) 

Heartbeat CPU 0 instructions: 20000000 cycles: 20085112 heartbeat IPC: 0.568666 cumulative IPC: 0.568666 (Simulation time: 0 hr 2 min 19 sec) 
Heartbeat CPU 0 instructions: 30000004 cycles: 37622230 heartbeat IPC: 0.570219 cumulative IPC: 0.569442 (Simulation time: 0 hr 4 min 6 sec) 
Heartbeat CPU 0 instructions: 40000001 cycles: 55155116 heartbeat IPC: 0.570357 cumulative IPC: 0.569746 (Simulation time: 0 hr 5 min 55 sec) 
Heartbeat CPU 0 instructions: 50000001 cycles: 75846767 heartbeat IPC: 0.483287 cumulative IPC: 0.545355 (Simulation time: 0 hr 8 min 17 sec) 
Heartbeat CPU 0 instructions: 60000000 cycles: 95671762 heartbeat IPC: 0.504414 cumulative IPC: 0.536644 (Simulation time: 0 hr 10 min 5 sec) 
Heartbeat CPU 0 instructions: 70000000 cycles: 115436799 heartbeat IPC: 0.505944 cumulative IPC: 0.531271 (Simulation time: 0 hr 11 min 53 sec) 
Heartbeat CPU 0 instructions: 80000000 cycles: 132180717 heartbeat IPC: 0.597232 cumulative IPC: 0.539788 (Simulation time: 0 hr 13 min 36 sec) 
Heartbeat CPU 0 instructions: 90000000 cycles: 148018947 heartbeat IPC: 0.631384 cumulative IPC: 0.549757 (Simulation time: 0 hr 15 min 15 sec) 
Heartbeat CPU 0 instructions: 100000002 cycles: 163991410 heartbeat IPC: 0.626078 cumulative IPC: 0.557306 (Simulation time: 0 hr 16 min 54 sec) 
Heartbeat CPU 0 instructions: 110000000 cycles: 180015809 heartbeat IPC: 0.624048 cumulative IPC: 0.56333 (Simulation time: 0 hr 18 min 30 sec) 
Finished CPU 0 instructions: 100000004 cycles: 177515707 cumulative IPC: 0.56333 (Simulation time: 0 hr 18 min 30 sec) 

ChampSim completed all CPUs

Region of Interest Statistics

CPU 0 cumulative IPC: 0.56333 instructions: 100000004 cycles: 177515707
cpu0_DTLB TOTAL     ACCESS:   15526415  HIT:   15311672  MISS:     214743
cpu0_DTLB LOAD      ACCESS:    9087111  HIT:    8874582  MISS:     212529
cpu0_DTLB RFO       ACCESS:    6439304  HIT:    6437090  MISS:       2214
cpu0_DTLB PREFETCH  ACCESS:          0  HIT:          0  MISS:          0
cpu0_DTLB WRITEBACK ACCESS:          0  HIT:          0  MISS:          0
cpu0_DTLB TRANSLATION ACCESS:          0  HIT:          0  MISS:          0
cpu0_DTLB PREFETCH  REQUESTED:          0  ISSUED:          0  USEFUL:          0  USELESS:          0
cpu0_DTLB AVERAGE MISS LATENCY: 83.8073 cycles
cpu0_ITLB TOTAL     ACCESS:    2730847  HIT:    2730844  MISS:          3
cpu0_ITLB LOAD      ACCESS:    2730847  HIT:    2730844  MISS:          3
cpu0_ITLB RFO       ACCESS:          0  HIT:          0  MISS:          0
cpu0_ITLB PREFETCH  ACCESS:          0  HIT:          0  MISS:          0
cpu0_ITLB WRITEBACK ACCESS:          0  HIT:          0  MISS:          0
cpu0_ITLB TRANSLATION ACCESS:          0  HIT:          0  MISS:          0
cpu0_ITLB PREFETCH  REQUESTED:          0  ISSUED:          0  USEFUL:          0  USELESS:          0
cpu0_ITLB AVERAGE MISS LATENCY: 520.333 cycles
cpu0_L1I TOTAL     ACCESS:    6934784  HIT:    6934756  MISS:         28
cpu0_L1I LOAD      ACCESS:    6934784  HIT:    6934756  MISS:         28
cpu0_L1I RFO       ACCESS:          0  HIT:          0  MISS:          0
cpu0_L1I PREFETCH  ACCESS:          0  HIT:          0  MISS:          0
cpu0_L1I WRITEBACK ACCESS:          0  HIT:          0  MISS:          0
cpu0_L1I TRANSLATION ACCESS:          0  HIT:          0  MISS:          0
cpu0_L1I PREFETCH  REQUESTED:          0  ISSUED:          0  USEFUL:          0  USELESS:          0
cpu0_L1I AVERAGE MISS LATENCY: 247.107 cycles
cpu0_STLB TOTAL     ACCESS:     214746  HIT:        123  MISS:     214623
cpu0_STLB LOAD      ACCESS:     212532  HIT:         98  MISS:     212434
cpu0_STLB RFO       ACCESS:       2214  HIT:         25  MISS:       2189
cpu0_STLB PREFETCH  ACCESS:          0  HIT:          0  MISS:          0
cpu0_STLB WRITEBACK ACCESS:          0  HIT:          0  MISS:          0
cpu0_STLB TRANSLATION ACCESS:          0  HIT:          0  MISS:          0
cpu0_STLB PREFETCH  REQUESTED:          0  ISSUED:          0  USEFUL:          0  USELESS:          0
cpu0_STLB AVERAGE MISS LATENCY: 74.8549 cycles
cpu0_L1D TOTAL     ACCESS:   24601539  HIT:   22505148  MISS:    2096391
cpu0_L1D LOAD      ACCESS:    6422735  HIT:    4466737  MISS:    1955998
cpu0_L1D RFO       ACCESS:   17964625  HIT:   17824616  MISS:     140009
cpu0_L1D PREFETCH  ACCESS:          0  HIT:          0  MISS:          0
cpu0_L1D WRITEBACK ACCESS:          0  HIT:          0  MISS:          0
cpu0_L1D TRANSLATION ACCESS:     214179  HIT:     213795  MISS:        384
cpu0_L1D PREFETCH  REQUESTED:          0  ISSUED:          0  USEFUL:          0  USELESS:          0
cpu0_L1D AVERAGE MISS LATENCY: 338.067 cycles
cpu0_L2C TOTAL     ACCESS:    2839086  HIT:     742662  MISS:    2096424
cpu0_L2C LOAD      ACCESS:    1956026  HIT:          0  MISS:    1956026
cpu0_L2C RFO       ACCESS:     140009  HIT:          0  MISS:     140009
cpu0_L2C PREFETCH  ACCESS:          0  HIT:          0  MISS:          0
cpu0_L2C WRITEBACK ACCESS:     742667  HIT:     742660  MISS:          7
cpu0_L2C TRANSLATION ACCESS:        384  HIT:          2  MISS:        382
cpu0_L2C PREFETCH  REQUESTED:          0  ISSUED:          0  USEFUL:          0  USELESS:          0
cpu0_L2C AVERAGE MISS LATENCY: 326.963 cycles
LLC TOTAL     ACCESS:    2839080  HIT:      53711  MISS:    2785369
LLC LOAD      ACCESS:    1956026  HIT:      14414  MISS:    1941612
LLC RFO       ACCESS:     140009  HIT:         32  MISS:     139977
LLC PREFETCH  ACCESS:          0  HIT:          0  MISS:          0
LLC WRITEBACK ACCESS:     742663  HIT:      39244  MISS:     703419
LLC TRANSLATION ACCESS:        382  HIT:         21  MISS:        361
LLC PREFETCH  REQUESTED:          0  ISSUED:          0  USEFUL:          0  USELESS:          0
LLC AVERAGE MISS LATENCY: 230.285 cycles

DRAM Statistics
 CHANNEL 0
 RQ ROW_BUFFER_HIT:     357236  ROW_BUFFER_MISS:    1724712
 DBUS AVG_CONGESTED_CYCLE:    3.94481
 WQ ROW_BUFFER_HIT:      41094  ROW_BUFFER_MISS:     690791  FULL:          0


CPU 0 Branch Prediction Accuracy: 99.9991% MPKI: 0.00037 Average ROB Occupancy at Mispredict: 88.1892
Branch type MPKI
BRANCH_DIRECT_JUMP: 4e-05
BRANCH_INDIRECT: 0
BRANCH_CONDITIONAL: 0.00015
BRANCH_DIRECT_CALL: 9e-05
BRANCH_INDIRECT_CALL: 0
BRANCH_RETURN: 9e-05

