
*** ChampSim Multicore Out-of-Order Simulator ***

Warmup Instructions: 10000000
Simulation Instructions: 100000000
Number of CPUs: 1
Off-chip DRAM Size: 4 GiB Channels: 1 Width: 64-bit Data Rate: 3200 MT/s

VirtualMemory physical capacity: 8588881920 num_ppages: 2096895
VirtualMemory page size: 4096 log2_page_size: 12

CPU 0 runs /datasets/cs240c-wi22-a00-public/data/Assignment2/omnetpp_17B.trace.xz
CPU 0 Bimodal branch predictor
Basic BTB sets: 1024 ways: 8 indirect buffer size: 4096 RAS size: 64
Initialize Hawkeye state
Initialize SRRIP state
Heartbeat CPU 0 instructions: 10000002 cycles: 2500125 heartbeat IPC: 3.9998 cumulative IPC: 3.9998 (Simulation time: 0 hr 0 min 25 sec) 

Warmup complete CPU 0 instructions: 10000002 cycles: 2500125 (Simulation time: 0 hr 0 min 25 sec) 

Heartbeat CPU 0 instructions: 20000003 cycles: 8366194 heartbeat IPC: 1.70472 cumulative IPC: 1.70472 (Simulation time: 0 hr 0 min 56 sec) 
Heartbeat CPU 0 instructions: 30000000 cycles: 16738355 heartbeat IPC: 1.19443 cumulative IPC: 1.40467 (Simulation time: 0 hr 1 min 45 sec) 
Heartbeat CPU 0 instructions: 40000001 cycles: 25509077 heartbeat IPC: 1.14016 cumulative IPC: 1.30384 (Simulation time: 0 hr 2 min 35 sec) 
Heartbeat CPU 0 instructions: 50000001 cycles: 31564867 heartbeat IPC: 1.65131 cumulative IPC: 1.37624 (Simulation time: 0 hr 3 min 7 sec) 
Heartbeat CPU 0 instructions: 60000001 cycles: 37715163 heartbeat IPC: 1.62594 cumulative IPC: 1.41985 (Simulation time: 0 hr 3 min 38 sec) 
Heartbeat CPU 0 instructions: 70000000 cycles: 44587397 heartbeat IPC: 1.45513 cumulative IPC: 1.42561 (Simulation time: 0 hr 4 min 18 sec) 
Heartbeat CPU 0 instructions: 80000002 cycles: 51581171 heartbeat IPC: 1.42984 cumulative IPC: 1.42621 (Simulation time: 0 hr 4 min 58 sec) 
Heartbeat CPU 0 instructions: 90000003 cycles: 58459483 heartbeat IPC: 1.45385 cumulative IPC: 1.42961 (Simulation time: 0 hr 5 min 41 sec) 
Heartbeat CPU 0 instructions: 100000002 cycles: 63807668 heartbeat IPC: 1.86979 cumulative IPC: 1.46801 (Simulation time: 0 hr 6 min 7 sec) 
Heartbeat CPU 0 instructions: 110000001 cycles: 70631374 heartbeat IPC: 1.46548 cumulative IPC: 1.46776 (Simulation time: 0 hr 6 min 51 sec) 
Finished CPU 0 instructions: 100000004 cycles: 68131256 cumulative IPC: 1.46776 (Simulation time: 0 hr 6 min 51 sec) 

ChampSim completed all CPUs

Region of Interest Statistics

CPU 0 cumulative IPC: 1.46776 instructions: 100000004 cycles: 68131256
cpu0_DTLB TOTAL     ACCESS:   10183723  HIT:    9118926  MISS:    1064797
cpu0_DTLB LOAD      ACCESS:    8246430  HIT:    7183513  MISS:    1062917
cpu0_DTLB RFO       ACCESS:    1937293  HIT:    1935413  MISS:       1880
cpu0_DTLB PREFETCH  ACCESS:          0  HIT:          0  MISS:          0
cpu0_DTLB WRITEBACK ACCESS:          0  HIT:          0  MISS:          0
cpu0_DTLB TRANSLATION ACCESS:          0  HIT:          0  MISS:          0
cpu0_DTLB PREFETCH  REQUESTED:          0  ISSUED:          0  USEFUL:          0  USELESS:          0
cpu0_DTLB AVERAGE MISS LATENCY: 20.7463 cycles
cpu0_ITLB TOTAL     ACCESS:    8332806  HIT:    8330749  MISS:       2057
cpu0_ITLB LOAD      ACCESS:    8332806  HIT:    8330749  MISS:       2057
cpu0_ITLB RFO       ACCESS:          0  HIT:          0  MISS:          0
cpu0_ITLB PREFETCH  ACCESS:          0  HIT:          0  MISS:          0
cpu0_ITLB WRITEBACK ACCESS:          0  HIT:          0  MISS:          0
cpu0_ITLB TRANSLATION ACCESS:          0  HIT:          0  MISS:          0
cpu0_ITLB PREFETCH  REQUESTED:          0  ISSUED:          0  USEFUL:          0  USELESS:          0
cpu0_ITLB AVERAGE MISS LATENCY: 15.6315 cycles
cpu0_L1I TOTAL     ACCESS:    1054813  HIT:    1050474  MISS:       4339
cpu0_L1I LOAD      ACCESS:    1054813  HIT:    1050474  MISS:       4339
cpu0_L1I RFO       ACCESS:          0  HIT:          0  MISS:          0
cpu0_L1I PREFETCH  ACCESS:          0  HIT:          0  MISS:          0
cpu0_L1I WRITEBACK ACCESS:          0  HIT:          0  MISS:          0
cpu0_L1I TRANSLATION ACCESS:          0  HIT:          0  MISS:          0
cpu0_L1I PREFETCH  REQUESTED:          0  ISSUED:          0  USEFUL:          0  USELESS:          0
cpu0_L1I AVERAGE MISS LATENCY: 64.3761 cycles
cpu0_STLB TOTAL     ACCESS:    1066854  HIT:      12739  MISS:    1054115
cpu0_STLB LOAD      ACCESS:    1064974  HIT:      11375  MISS:    1053599
cpu0_STLB RFO       ACCESS:       1880  HIT:       1364  MISS:        516
cpu0_STLB PREFETCH  ACCESS:          0  HIT:          0  MISS:          0
cpu0_STLB WRITEBACK ACCESS:          0  HIT:          0  MISS:          0
cpu0_STLB TRANSLATION ACCESS:          0  HIT:          0  MISS:          0
cpu0_STLB PREFETCH  REQUESTED:          0  ISSUED:          0  USEFUL:          0  USELESS:          0
cpu0_STLB AVERAGE MISS LATENCY: 11.442 cycles
cpu0_L1D TOTAL     ACCESS:   10199795  HIT:    8445358  MISS:    1754437
cpu0_L1D LOAD      ACCESS:    6387424  HIT:    4647134  MISS:    1740290
cpu0_L1D RFO       ACCESS:    3337533  HIT:    3324476  MISS:      13057
cpu0_L1D PREFETCH  ACCESS:          0  HIT:          0  MISS:          0
cpu0_L1D WRITEBACK ACCESS:          0  HIT:          0  MISS:          0
cpu0_L1D TRANSLATION ACCESS:     474838  HIT:     473748  MISS:       1090
cpu0_L1D PREFETCH  REQUESTED:          0  ISSUED:          0  USEFUL:          0  USELESS:          0
cpu0_L1D AVERAGE MISS LATENCY: 118.454 cycles
cpu0_L2C TOTAL     ACCESS:    1775587  HIT:      23265  MISS:    1752322
cpu0_L2C LOAD      ACCESS:    1744629  HIT:       5922  MISS:    1738707
cpu0_L2C RFO       ACCESS:      13057  HIT:        137  MISS:      12920
cpu0_L2C PREFETCH  ACCESS:          0  HIT:          0  MISS:          0
cpu0_L2C WRITEBACK ACCESS:      16811  HIT:      16811  MISS:          0
cpu0_L2C TRANSLATION ACCESS:       1090  HIT:        395  MISS:        695
cpu0_L2C PREFETCH  REQUESTED:          0  ISSUED:          0  USEFUL:          0  USELESS:          0
cpu0_L2C AVERAGE MISS LATENCY: 107.122 cycles
LLC TOTAL     ACCESS:    1769029  HIT:    1386741  MISS:     382288
LLC LOAD      ACCESS:    1738707  HIT:    1374132  MISS:     364575
LLC RFO       ACCESS:      12920  HIT:       2482  MISS:      10438
LLC PREFETCH  ACCESS:          0  HIT:          0  MISS:          0
LLC WRITEBACK ACCESS:      16707  HIT:       9552  MISS:       7155
LLC TRANSLATION ACCESS:        695  HIT:        575  MISS:        120
LLC PREFETCH  REQUESTED:          0  ISSUED:          0  USEFUL:          0  USELESS:          0
LLC AVERAGE MISS LATENCY: 394.722 cycles

DRAM Statistics
 CHANNEL 0
 RQ ROW_BUFFER_HIT:       9734  ROW_BUFFER_MISS:     365303
 DBUS AVG_CONGESTED_CYCLE:    3.96722
 WQ ROW_BUFFER_HIT:       2703  ROW_BUFFER_MISS:       9064  FULL:          0


CPU 0 Branch Prediction Accuracy: 97.6159% MPKI: 7.87238 Average ROB Occupancy at Mispredict: 63.275
Branch type MPKI
BRANCH_DIRECT_JUMP: 0.00032
BRANCH_INDIRECT: 0.08474
BRANCH_CONDITIONAL: 7.75802
BRANCH_DIRECT_CALL: 0.00068
BRANCH_INDIRECT_CALL: 0.00292
BRANCH_RETURN: 0.0257

