
*** ChampSim Multicore Out-of-Order Simulator ***

Warmup Instructions: 10000000
Simulation Instructions: 100000000
Number of CPUs: 1
Off-chip DRAM Size: 4 GiB Channels: 1 Width: 64-bit Data Rate: 3200 MT/s

VirtualMemory physical capacity: 8588881920 num_ppages: 2096895
VirtualMemory page size: 4096 log2_page_size: 12

CPU 0 runs /datasets/cs240c-wi22-a00-public/data/Assignment2/zeusmp_100B.trace.xz
CPU 0 Bimodal branch predictor
Basic BTB sets: 1024 ways: 8 indirect buffer size: 4096 RAS size: 64
Initialize Hawkeye state
Initialize SRRIP state
Heartbeat CPU 0 instructions: 10000000 cycles: 2533557 heartbeat IPC: 3.94702 cumulative IPC: 3.94702 (Simulation time: 0 hr 0 min 27 sec) 

Warmup complete CPU 0 instructions: 10000004 cycles: 2533558 (Simulation time: 0 hr 0 min 27 sec) 

Heartbeat CPU 0 instructions: 20000003 cycles: 8011239 heartbeat IPC: 1.82559 cumulative IPC: 1.82559 (Simulation time: 0 hr 1 min 15 sec) 
Heartbeat CPU 0 instructions: 30000000 cycles: 13923918 heartbeat IPC: 1.69128 cumulative IPC: 1.75587 (Simulation time: 0 hr 2 min 9 sec) 
Heartbeat CPU 0 instructions: 40000004 cycles: 19836919 heartbeat IPC: 1.69119 cumulative IPC: 1.73377 (Simulation time: 0 hr 3 min 4 sec) 
Heartbeat CPU 0 instructions: 50000001 cycles: 25728461 heartbeat IPC: 1.69735 cumulative IPC: 1.72452 (Simulation time: 0 hr 3 min 59 sec) 
Heartbeat CPU 0 instructions: 60000004 cycles: 31645976 heartbeat IPC: 1.6899 cumulative IPC: 1.71748 (Simulation time: 0 hr 4 min 52 sec) 
Heartbeat CPU 0 instructions: 70000001 cycles: 37519003 heartbeat IPC: 1.7027 cumulative IPC: 1.715 (Simulation time: 0 hr 5 min 44 sec) 
Heartbeat CPU 0 instructions: 80000001 cycles: 43419511 heartbeat IPC: 1.69477 cumulative IPC: 1.71208 (Simulation time: 0 hr 6 min 34 sec) 
Heartbeat CPU 0 instructions: 90000000 cycles: 49336473 heartbeat IPC: 1.69006 cumulative IPC: 1.7093 (Simulation time: 0 hr 7 min 24 sec) 
Heartbeat CPU 0 instructions: 100000000 cycles: 55224970 heartbeat IPC: 1.69823 cumulative IPC: 1.70806 (Simulation time: 0 hr 8 min 11 sec) 
Heartbeat CPU 0 instructions: 110000003 cycles: 61147610 heartbeat IPC: 1.68844 cumulative IPC: 1.70608 (Simulation time: 0 hr 8 min 59 sec) 
Finished CPU 0 instructions: 100000004 cycles: 58614053 cumulative IPC: 1.70608 (Simulation time: 0 hr 8 min 59 sec) 

ChampSim completed all CPUs

Region of Interest Statistics

CPU 0 cumulative IPC: 1.70608 instructions: 100000004 cycles: 58614053
cpu0_DTLB TOTAL     ACCESS:   16445175  HIT:   12280743  MISS:    4164432
cpu0_DTLB LOAD      ACCESS:   11966524  HIT:    9309207  MISS:    2657317
cpu0_DTLB RFO       ACCESS:    4478651  HIT:    2971536  MISS:    1507115
cpu0_DTLB PREFETCH  ACCESS:          0  HIT:          0  MISS:          0
cpu0_DTLB WRITEBACK ACCESS:          0  HIT:          0  MISS:          0
cpu0_DTLB TRANSLATION ACCESS:          0  HIT:          0  MISS:          0
cpu0_DTLB PREFETCH  REQUESTED:          0  ISSUED:          0  USEFUL:          0  USELESS:          0
cpu0_DTLB AVERAGE MISS LATENCY: 10.402 cycles
cpu0_ITLB TOTAL     ACCESS:    2227448  HIT:    2227447  MISS:          1
cpu0_ITLB LOAD      ACCESS:    2227448  HIT:    2227447  MISS:          1
cpu0_ITLB RFO       ACCESS:          0  HIT:          0  MISS:          0
cpu0_ITLB PREFETCH  ACCESS:          0  HIT:          0  MISS:          0
cpu0_ITLB WRITEBACK ACCESS:          0  HIT:          0  MISS:          0
cpu0_ITLB TRANSLATION ACCESS:          0  HIT:          0  MISS:          0
cpu0_ITLB PREFETCH  REQUESTED:          0  ISSUED:          0  USEFUL:          0  USELESS:          0
cpu0_ITLB AVERAGE MISS LATENCY: 411 cycles
cpu0_L1I TOTAL     ACCESS:    3117534  HIT:    3117483  MISS:         51
cpu0_L1I LOAD      ACCESS:    3117534  HIT:    3117483  MISS:         51
cpu0_L1I RFO       ACCESS:          0  HIT:          0  MISS:          0
cpu0_L1I PREFETCH  ACCESS:          0  HIT:          0  MISS:          0
cpu0_L1I WRITEBACK ACCESS:          0  HIT:          0  MISS:          0
cpu0_L1I TRANSLATION ACCESS:          0  HIT:          0  MISS:          0
cpu0_L1I PREFETCH  REQUESTED:          0  ISSUED:          0  USEFUL:          0  USELESS:          0
cpu0_L1I AVERAGE MISS LATENCY: 302.235 cycles
cpu0_STLB TOTAL     ACCESS:    4164433  HIT:    4155994  MISS:       8439
cpu0_STLB LOAD      ACCESS:    2657318  HIT:    2652155  MISS:       5163
cpu0_STLB RFO       ACCESS:    1507115  HIT:    1503839  MISS:       3276
cpu0_STLB PREFETCH  ACCESS:          0  HIT:          0  MISS:          0
cpu0_STLB WRITEBACK ACCESS:          0  HIT:          0  MISS:          0
cpu0_STLB TRANSLATION ACCESS:          0  HIT:          0  MISS:          0
cpu0_STLB PREFETCH  REQUESTED:          0  ISSUED:          0  USEFUL:          0  USELESS:          0
cpu0_STLB AVERAGE MISS LATENCY: 555.386 cycles
cpu0_L1D TOTAL     ACCESS:   19021480  HIT:   13986637  MISS:    5034843
cpu0_L1D LOAD      ACCESS:   12126262  HIT:    8891281  MISS:    3234981
cpu0_L1D RFO       ACCESS:    6886895  HIT:    5094730  MISS:    1792165
cpu0_L1D PREFETCH  ACCESS:          0  HIT:          0  MISS:          0
cpu0_L1D WRITEBACK ACCESS:          0  HIT:          0  MISS:          0
cpu0_L1D TRANSLATION ACCESS:       8323  HIT:        626  MISS:       7697
cpu0_L1D PREFETCH  REQUESTED:          0  ISSUED:          0  USEFUL:          0  USELESS:          0
cpu0_L1D AVERAGE MISS LATENCY: 86.2715 cycles
cpu0_L2C TOTAL     ACCESS:    6855555  HIT:    6267970  MISS:     587585
cpu0_L2C LOAD      ACCESS:    3234754  HIT:    2840728  MISS:     394026
cpu0_L2C RFO       ACCESS:    1790649  HIT:    1597387  MISS:     193262
cpu0_L2C PREFETCH  ACCESS:          0  HIT:          0  MISS:          0
cpu0_L2C WRITEBACK ACCESS:    1822455  HIT:    1822164  MISS:        291
cpu0_L2C TRANSLATION ACCESS:       7697  HIT:       7691  MISS:          6
cpu0_L2C PREFETCH  REQUESTED:          0  ISSUED:          0  USEFUL:          0  USELESS:          0
cpu0_L2C AVERAGE MISS LATENCY: 644.117 cycles
LLC TOTAL     ACCESS:     780635  HIT:     113154  MISS:     667481
LLC LOAD      ACCESS:     394026  HIT:      88604  MISS:     305422
LLC RFO       ACCESS:     193262  HIT:          0  MISS:     193262
LLC PREFETCH  ACCESS:          0  HIT:          0  MISS:          0
LLC WRITEBACK ACCESS:     193341  HIT:      24550  MISS:     168791
LLC TRANSLATION ACCESS:          6  HIT:          0  MISS:          6
LLC PREFETCH  REQUESTED:          0  ISSUED:          0  USEFUL:          0  USELESS:          0
LLC AVERAGE MISS LATENCY: 548.54 cycles

DRAM Statistics
 CHANNEL 0
 RQ ROW_BUFFER_HIT:        147  ROW_BUFFER_MISS:     498543
 DBUS AVG_CONGESTED_CYCLE:    3.99929
 WQ ROW_BUFFER_HIT:        395  ROW_BUFFER_MISS:     188131  FULL:          0


CPU 0 Branch Prediction Accuracy: 99.0158% MPKI: 0.52371 Average ROB Occupancy at Mispredict: 235.788
Branch type MPKI
BRANCH_DIRECT_JUMP: 1e-05
BRANCH_INDIRECT: 0
BRANCH_CONDITIONAL: 0.5237
BRANCH_DIRECT_CALL: 0
BRANCH_INDIRECT_CALL: 0
BRANCH_RETURN: 0

