
*** ChampSim Multicore Out-of-Order Simulator ***

Warmup Instructions: 10000000
Simulation Instructions: 100000000
Number of CPUs: 1
Off-chip DRAM Size: 4 GiB Channels: 1 Width: 64-bit Data Rate: 3200 MT/s

VirtualMemory physical capacity: 8588881920 num_ppages: 2096895
VirtualMemory page size: 4096 log2_page_size: 12

CPU 0 runs /datasets/cs240c-wi22-a00-public/data/Assignment2/h264ref_351B.trace.xz
CPU 0 Bimodal branch predictor
Basic BTB sets: 1024 ways: 8 indirect buffer size: 4096 RAS size: 64
Initialize Hawkeye state
Initialize SRRIP state
Heartbeat CPU 0 instructions: 10000003 cycles: 3499507 heartbeat IPC: 2.85755 cumulative IPC: 2.85755 (Simulation time: 0 hr 0 min 51 sec) 

Warmup complete CPU 0 instructions: 10000003 cycles: 3499507 (Simulation time: 0 hr 0 min 51 sec) 

Heartbeat CPU 0 instructions: 20000000 cycles: 12268566 heartbeat IPC: 1.14037 cumulative IPC: 1.14037 (Simulation time: 0 hr 1 min 37 sec) 
Heartbeat CPU 0 instructions: 30000000 cycles: 18618471 heartbeat IPC: 1.57483 cumulative IPC: 1.32284 (Simulation time: 0 hr 2 min 44 sec) 
Heartbeat CPU 0 instructions: 40000001 cycles: 24752266 heartbeat IPC: 1.63031 cumulative IPC: 1.41158 (Simulation time: 0 hr 3 min 52 sec) 
Heartbeat CPU 0 instructions: 50000000 cycles: 31380339 heartbeat IPC: 1.50873 cumulative IPC: 1.43468 (Simulation time: 0 hr 4 min 43 sec) 
Heartbeat CPU 0 instructions: 60000002 cycles: 39155202 heartbeat IPC: 1.2862 cumulative IPC: 1.4023 (Simulation time: 0 hr 5 min 34 sec) 
Heartbeat CPU 0 instructions: 70000001 cycles: 45231309 heartbeat IPC: 1.64579 cumulative IPC: 1.43775 (Simulation time: 0 hr 6 min 42 sec) 
Heartbeat CPU 0 instructions: 80000004 cycles: 51167845 heartbeat IPC: 1.68448 cumulative IPC: 1.46848 (Simulation time: 0 hr 7 min 47 sec) 
Heartbeat CPU 0 instructions: 90000004 cycles: 57924037 heartbeat IPC: 1.48012 cumulative IPC: 1.46993 (Simulation time: 0 hr 8 min 34 sec) 
Heartbeat CPU 0 instructions: 100000001 cycles: 65359844 heartbeat IPC: 1.34484 cumulative IPC: 1.45489 (Simulation time: 0 hr 9 min 31 sec) 
Heartbeat CPU 0 instructions: 110000001 cycles: 71427740 heartbeat IPC: 1.64802 cumulative IPC: 1.47214 (Simulation time: 0 hr 10 min 41 sec) 
Finished CPU 0 instructions: 100000003 cycles: 67928234 cumulative IPC: 1.47214 (Simulation time: 0 hr 10 min 41 sec) 

ChampSim completed all CPUs

Region of Interest Statistics

CPU 0 cumulative IPC: 1.47214 instructions: 100000003 cycles: 67928234
cpu0_DTLB TOTAL     ACCESS:   22000000  HIT:   21964106  MISS:      35894
cpu0_DTLB LOAD      ACCESS:   18623154  HIT:   18590368  MISS:      32786
cpu0_DTLB RFO       ACCESS:    3376846  HIT:    3373738  MISS:       3108
cpu0_DTLB PREFETCH  ACCESS:          0  HIT:          0  MISS:          0
cpu0_DTLB WRITEBACK ACCESS:          0  HIT:          0  MISS:          0
cpu0_DTLB TRANSLATION ACCESS:          0  HIT:          0  MISS:          0
cpu0_DTLB PREFETCH  REQUESTED:          0  ISSUED:          0  USEFUL:          0  USELESS:          0
cpu0_DTLB AVERAGE MISS LATENCY: 12.3126 cycles
cpu0_ITLB TOTAL     ACCESS:    6602317  HIT:    6601857  MISS:        460
cpu0_ITLB LOAD      ACCESS:    6602317  HIT:    6601857  MISS:        460
cpu0_ITLB RFO       ACCESS:          0  HIT:          0  MISS:          0
cpu0_ITLB PREFETCH  ACCESS:          0  HIT:          0  MISS:          0
cpu0_ITLB WRITEBACK ACCESS:          0  HIT:          0  MISS:          0
cpu0_ITLB TRANSLATION ACCESS:          0  HIT:          0  MISS:          0
cpu0_ITLB PREFETCH  REQUESTED:          0  ISSUED:          0  USEFUL:          0  USELESS:          0
cpu0_ITLB AVERAGE MISS LATENCY: 26.5326 cycles
cpu0_L1I TOTAL     ACCESS:    4925263  HIT:    4899849  MISS:      25414
cpu0_L1I LOAD      ACCESS:    4925263  HIT:    4899849  MISS:      25414
cpu0_L1I RFO       ACCESS:          0  HIT:          0  MISS:          0
cpu0_L1I PREFETCH  ACCESS:          0  HIT:          0  MISS:          0
cpu0_L1I WRITEBACK ACCESS:          0  HIT:          0  MISS:          0
cpu0_L1I TRANSLATION ACCESS:          0  HIT:          0  MISS:          0
cpu0_L1I PREFETCH  REQUESTED:          0  ISSUED:          0  USEFUL:          0  USELESS:          0
cpu0_L1I AVERAGE MISS LATENCY: 40.0685 cycles
cpu0_STLB TOTAL     ACCESS:      36354  HIT:      35222  MISS:       1132
cpu0_STLB LOAD      ACCESS:      33246  HIT:      32346  MISS:        900
cpu0_STLB RFO       ACCESS:       3108  HIT:       2876  MISS:        232
cpu0_STLB PREFETCH  ACCESS:          0  HIT:          0  MISS:          0
cpu0_STLB WRITEBACK ACCESS:          0  HIT:          0  MISS:          0
cpu0_STLB TRANSLATION ACCESS:          0  HIT:          0  MISS:          0
cpu0_STLB PREFETCH  REQUESTED:          0  ISSUED:          0  USEFUL:          0  USELESS:          0
cpu0_STLB AVERAGE MISS LATENCY: 111.328 cycles
cpu0_L1D TOTAL     ACCESS:   23787615  HIT:   23473282  MISS:     314333
cpu0_L1D LOAD      ACCESS:   17652946  HIT:   17426059  MISS:     226887
cpu0_L1D RFO       ACCESS:    6133573  HIT:    6046369  MISS:      87204
cpu0_L1D PREFETCH  ACCESS:          0  HIT:          0  MISS:          0
cpu0_L1D WRITEBACK ACCESS:          0  HIT:          0  MISS:          0
cpu0_L1D TRANSLATION ACCESS:       1096  HIT:        854  MISS:        242
cpu0_L1D PREFETCH  REQUESTED:          0  ISSUED:          0  USEFUL:          0  USELESS:          0
cpu0_L1D AVERAGE MISS LATENCY: 71.4311 cycles
cpu0_L2C TOTAL     ACCESS:     428256  HIT:     237297  MISS:     190959
cpu0_L2C LOAD      ACCESS:     252301  HIT:     142292  MISS:     110009
cpu0_L2C RFO       ACCESS:      87204  HIT:       6445  MISS:      80759
cpu0_L2C PREFETCH  ACCESS:          0  HIT:          0  MISS:          0
cpu0_L2C WRITEBACK ACCESS:      88509  HIT:      88350  MISS:        159
cpu0_L2C TRANSLATION ACCESS:        242  HIT:        210  MISS:         32
cpu0_L2C PREFETCH  REQUESTED:          0  ISSUED:          0  USEFUL:          0  USELESS:          0
cpu0_L2C AVERAGE MISS LATENCY: 103.271 cycles
LLC TOTAL     ACCESS:     266237  HIT:     185265  MISS:      80972
LLC LOAD      ACCESS:     110009  HIT:      63894  MISS:      46115
LLC RFO       ACCESS:      80759  HIT:      51731  MISS:      29028
LLC PREFETCH  ACCESS:          0  HIT:          0  MISS:          0
LLC WRITEBACK ACCESS:      75437  HIT:      69621  MISS:       5816
LLC TRANSLATION ACCESS:         32  HIT:         19  MISS:         13
LLC PREFETCH  REQUESTED:          0  ISSUED:          0  USEFUL:          0  USELESS:          0
LLC AVERAGE MISS LATENCY: 194.06 cycles

DRAM Statistics
 CHANNEL 0
 RQ ROW_BUFFER_HIT:      25027  ROW_BUFFER_MISS:      50084
 DBUS AVG_CONGESTED_CYCLE:    3.90113
 WQ ROW_BUFFER_HIT:       4143  ROW_BUFFER_MISS:      24080  FULL:          0


CPU 0 Branch Prediction Accuracy: 92.8368% MPKI: 5.81059 Average ROB Occupancy at Mispredict: 122.796
Branch type MPKI
BRANCH_DIRECT_JUMP: 0.00172
BRANCH_INDIRECT: 0.00314
BRANCH_CONDITIONAL: 5.80098
BRANCH_DIRECT_CALL: 0.00111
BRANCH_INDIRECT_CALL: 0.00157
BRANCH_RETURN: 0.00207

