
*** ChampSim Multicore Out-of-Order Simulator ***

Warmup Instructions: 10000000
Simulation Instructions: 100000000
Number of CPUs: 1
Off-chip DRAM Size: 4 GiB Channels: 1 Width: 64-bit Data Rate: 3200 MT/s

VirtualMemory physical capacity: 8588881920 num_ppages: 2096895
VirtualMemory page size: 4096 log2_page_size: 12

CPU 0 runs /datasets/cs240c-wi22-a00-public/data/Assignment2/hmmer_397B.trace.xz
CPU 0 Bimodal branch predictor
Basic BTB sets: 1024 ways: 8 indirect buffer size: 4096 RAS size: 64
Initialize Hawkeye state
Initialize SRRIP state
Heartbeat CPU 0 instructions: 10000000 cycles: 3996187 heartbeat IPC: 2.50239 cumulative IPC: 2.50239 (Simulation time: 0 hr 0 min 56 sec) 

Warmup complete CPU 0 instructions: 10000005 cycles: 3996190 (Simulation time: 0 hr 0 min 56 sec) 

Heartbeat CPU 0 instructions: 20000002 cycles: 9265609 heartbeat IPC: 1.89774 cumulative IPC: 1.89774 (Simulation time: 0 hr 2 min 19 sec) 
Heartbeat CPU 0 instructions: 30000003 cycles: 14180420 heartbeat IPC: 2.03467 cumulative IPC: 1.96382 (Simulation time: 0 hr 3 min 40 sec) 
Heartbeat CPU 0 instructions: 40000003 cycles: 19193304 heartbeat IPC: 1.99486 cumulative IPC: 1.97406 (Simulation time: 0 hr 5 min 1 sec) 
Heartbeat CPU 0 instructions: 50000001 cycles: 24505105 heartbeat IPC: 1.8826 cumulative IPC: 1.95037 (Simulation time: 0 hr 6 min 24 sec) 
Heartbeat CPU 0 instructions: 60000002 cycles: 29679647 heartbeat IPC: 1.93254 cumulative IPC: 1.94678 (Simulation time: 0 hr 7 min 46 sec) 
Heartbeat CPU 0 instructions: 70000004 cycles: 34103646 heartbeat IPC: 2.2604 cumulative IPC: 1.99286 (Simulation time: 0 hr 9 min 5 sec) 
Heartbeat CPU 0 instructions: 80000000 cycles: 38460663 heartbeat IPC: 2.29515 cumulative IPC: 2.03108 (Simulation time: 0 hr 10 min 26 sec) 
Heartbeat CPU 0 instructions: 90000004 cycles: 42821249 heartbeat IPC: 2.29327 cumulative IPC: 2.06052 (Simulation time: 0 hr 11 min 43 sec) 
Heartbeat CPU 0 instructions: 100000003 cycles: 47156913 heartbeat IPC: 2.30645 cumulative IPC: 2.08523 (Simulation time: 0 hr 13 min 1 sec) 
Heartbeat CPU 0 instructions: 110000001 cycles: 51504407 heartbeat IPC: 2.30018 cumulative IPC: 2.1049 (Simulation time: 0 hr 14 min 18 sec) 
Finished CPU 0 instructions: 100000001 cycles: 47508218 cumulative IPC: 2.1049 (Simulation time: 0 hr 14 min 18 sec) 

ChampSim completed all CPUs

Region of Interest Statistics

CPU 0 cumulative IPC: 2.1049 instructions: 100000001 cycles: 47508218
cpu0_DTLB TOTAL     ACCESS:   40463684  HIT:   40455736  MISS:       7948
cpu0_DTLB LOAD      ACCESS:   32300721  HIT:   32297852  MISS:       2869
cpu0_DTLB RFO       ACCESS:    8162963  HIT:    8157884  MISS:       5079
cpu0_DTLB PREFETCH  ACCESS:          0  HIT:          0  MISS:          0
cpu0_DTLB WRITEBACK ACCESS:          0  HIT:          0  MISS:          0
cpu0_DTLB TRANSLATION ACCESS:          0  HIT:          0  MISS:          0
cpu0_DTLB PREFETCH  REQUESTED:          0  ISSUED:          0  USEFUL:          0  USELESS:          0
cpu0_DTLB AVERAGE MISS LATENCY: 25.0711 cycles
cpu0_ITLB TOTAL     ACCESS:     797353  HIT:     797246  MISS:        107
cpu0_ITLB LOAD      ACCESS:     797353  HIT:     797246  MISS:        107
cpu0_ITLB RFO       ACCESS:          0  HIT:          0  MISS:          0
cpu0_ITLB PREFETCH  ACCESS:          0  HIT:          0  MISS:          0
cpu0_ITLB WRITEBACK ACCESS:          0  HIT:          0  MISS:          0
cpu0_ITLB TRANSLATION ACCESS:          0  HIT:          0  MISS:          0
cpu0_ITLB PREFETCH  REQUESTED:          0  ISSUED:          0  USEFUL:          0  USELESS:          0
cpu0_ITLB AVERAGE MISS LATENCY: 79.2617 cycles
cpu0_L1I TOTAL     ACCESS:      64579  HIT:      64243  MISS:        336
cpu0_L1I LOAD      ACCESS:      64579  HIT:      64243  MISS:        336
cpu0_L1I RFO       ACCESS:          0  HIT:          0  MISS:          0
cpu0_L1I PREFETCH  ACCESS:          0  HIT:          0  MISS:          0
cpu0_L1I WRITEBACK ACCESS:          0  HIT:          0  MISS:          0
cpu0_L1I TRANSLATION ACCESS:          0  HIT:          0  MISS:          0
cpu0_L1I PREFETCH  REQUESTED:          0  ISSUED:          0  USEFUL:          0  USELESS:          0
cpu0_L1I AVERAGE MISS LATENCY: 307.705 cycles
cpu0_STLB TOTAL     ACCESS:       8055  HIT:       7275  MISS:        780
cpu0_STLB LOAD      ACCESS:       2976  HIT:       2809  MISS:        167
cpu0_STLB RFO       ACCESS:       5079  HIT:       4466  MISS:        613
cpu0_STLB PREFETCH  ACCESS:          0  HIT:          0  MISS:          0
cpu0_STLB WRITEBACK ACCESS:          0  HIT:          0  MISS:          0
cpu0_STLB TRANSLATION ACCESS:          0  HIT:          0  MISS:          0
cpu0_STLB PREFETCH  REQUESTED:          0  ISSUED:          0  USEFUL:          0  USELESS:          0
cpu0_STLB AVERAGE MISS LATENCY: 173.31 cycles
cpu0_L1D TOTAL     ACCESS:   32693482  HIT:   32227735  MISS:     465747
cpu0_L1D LOAD      ACCESS:   28659735  HIT:   28503162  MISS:     156573
cpu0_L1D RFO       ACCESS:    4032977  HIT:    3723992  MISS:     308985
cpu0_L1D PREFETCH  ACCESS:          0  HIT:          0  MISS:          0
cpu0_L1D WRITEBACK ACCESS:          0  HIT:          0  MISS:          0
cpu0_L1D TRANSLATION ACCESS:        770  HIT:        581  MISS:        189
cpu0_L1D PREFETCH  REQUESTED:          0  ISSUED:          0  USEFUL:          0  USELESS:          0
cpu0_L1D AVERAGE MISS LATENCY: 362.33 cycles
cpu0_L2C TOTAL     ACCESS:     772253  HIT:     485045  MISS:     287208
cpu0_L2C LOAD      ACCESS:     156909  HIT:     142208  MISS:      14701
cpu0_L2C RFO       ACCESS:     308985  HIT:      36532  MISS:     272453
cpu0_L2C PREFETCH  ACCESS:          0  HIT:          0  MISS:          0
cpu0_L2C WRITEBACK ACCESS:     306170  HIT:     306133  MISS:         37
cpu0_L2C TRANSLATION ACCESS:        189  HIT:        172  MISS:         17
cpu0_L2C PREFETCH  REQUESTED:          0  ISSUED:          0  USEFUL:          0  USELESS:          0
cpu0_L2C AVERAGE MISS LATENCY: 570.062 cycles
LLC TOTAL     ACCESS:     557412  HIT:     358937  MISS:     198475
LLC LOAD      ACCESS:      14701  HIT:      10762  MISS:       3939
LLC RFO       ACCESS:     272306  HIT:     135786  MISS:     136520
LLC PREFETCH  ACCESS:          0  HIT:          0  MISS:          0
LLC WRITEBACK ACCESS:     270388  HIT:     212380  MISS:      58008
LLC TRANSLATION ACCESS:         17  HIT:          9  MISS:          8
LLC PREFETCH  REQUESTED:          0  ISSUED:          0  USEFUL:          0  USELESS:          0
LLC AVERAGE MISS LATENCY: 794.552 cycles

DRAM Statistics
 CHANNEL 0
 RQ ROW_BUFFER_HIT:       1978  ROW_BUFFER_MISS:     138485
 DBUS AVG_CONGESTED_CYCLE:    3.99515
 WQ ROW_BUFFER_HIT:       7448  ROW_BUFFER_MISS:     126592  FULL:       1580


CPU 0 Branch Prediction Accuracy: 98.9257% MPKI: 0.41399 Average ROB Occupancy at Mispredict: 250.033
Branch type MPKI
BRANCH_DIRECT_JUMP: 0.00081
BRANCH_INDIRECT: 0.00176
BRANCH_CONDITIONAL: 0.40978
BRANCH_DIRECT_CALL: 0.00081
BRANCH_INDIRECT_CALL: 2e-05
BRANCH_RETURN: 0.00081

