
*** ChampSim Multicore Out-of-Order Simulator ***

Warmup Instructions: 10000000
Simulation Instructions: 100000000
Number of CPUs: 1
Off-chip DRAM Size: 4 GiB Channels: 1 Width: 64-bit Data Rate: 3200 MT/s

VirtualMemory physical capacity: 8588881920 num_ppages: 2096895
VirtualMemory page size: 4096 log2_page_size: 12

CPU 0 runs /datasets/cs240c-wi22-a00-public/data/Assignment2/lbm_94B.trace.xz
CPU 0 Bimodal branch predictor
Basic BTB sets: 1024 ways: 8 indirect buffer size: 4096 RAS size: 64
Initialize Hawkeye state
Initialize SRRIP state
Heartbeat CPU 0 instructions: 10000000 cycles: 2544769 heartbeat IPC: 3.92963 cumulative IPC: 3.92963 (Simulation time: 0 hr 0 min 27 sec) 

Warmup complete CPU 0 instructions: 10000004 cycles: 2544770 (Simulation time: 0 hr 0 min 27 sec) 

Heartbeat CPU 0 instructions: 20000000 cycles: 36949859 heartbeat IPC: 0.290655 cumulative IPC: 0.290655 (Simulation time: 0 hr 2 min 43 sec) 
Heartbeat CPU 0 instructions: 30000004 cycles: 70617549 heartbeat IPC: 0.297021 cumulative IPC: 0.293803 (Simulation time: 0 hr 5 min 5 sec) 
Heartbeat CPU 0 instructions: 40000000 cycles: 103227971 heartbeat IPC: 0.30665 cumulative IPC: 0.297964 (Simulation time: 0 hr 7 min 29 sec) 
Heartbeat CPU 0 instructions: 50000001 cycles: 135006825 heartbeat IPC: 0.314675 cumulative IPC: 0.301973 (Simulation time: 0 hr 9 min 43 sec) 
Heartbeat CPU 0 instructions: 60000003 cycles: 165689278 heartbeat IPC: 0.325919 cumulative IPC: 0.306477 (Simulation time: 0 hr 11 min 54 sec) 
Heartbeat CPU 0 instructions: 70000001 cycles: 196211428 heartbeat IPC: 0.327631 cumulative IPC: 0.309811 (Simulation time: 0 hr 14 min 1 sec) 
Heartbeat CPU 0 instructions: 80000003 cycles: 227066489 heartbeat IPC: 0.324096 cumulative IPC: 0.311774 (Simulation time: 0 hr 16 min 12 sec) 
Heartbeat CPU 0 instructions: 90000003 cycles: 257749480 heartbeat IPC: 0.325913 cumulative IPC: 0.313474 (Simulation time: 0 hr 18 min 21 sec) 
Heartbeat CPU 0 instructions: 100000001 cycles: 288478825 heartbeat IPC: 0.325422 cumulative IPC: 0.314758 (Simulation time: 0 hr 20 min 27 sec) 
Heartbeat CPU 0 instructions: 110000003 cycles: 318790232 heartbeat IPC: 0.329909 cumulative IPC: 0.31621 (Simulation time: 0 hr 22 min 33 sec) 
Finished CPU 0 instructions: 100000004 cycles: 316245463 cumulative IPC: 0.31621 (Simulation time: 0 hr 22 min 33 sec) 

ChampSim completed all CPUs

Region of Interest Statistics

CPU 0 cumulative IPC: 0.31621 instructions: 100000004 cycles: 316245463
cpu0_DTLB TOTAL     ACCESS:   13207565  HIT:   13159813  MISS:      47752
cpu0_DTLB LOAD      ACCESS:    6751811  HIT:    6739863  MISS:      11948
cpu0_DTLB RFO       ACCESS:    6455754  HIT:    6419950  MISS:      35804
cpu0_DTLB PREFETCH  ACCESS:          0  HIT:          0  MISS:          0
cpu0_DTLB WRITEBACK ACCESS:          0  HIT:          0  MISS:          0
cpu0_DTLB TRANSLATION ACCESS:          0  HIT:          0  MISS:          0
cpu0_DTLB PREFETCH  REQUESTED:          0  ISSUED:          0  USEFUL:          0  USELESS:          0
cpu0_DTLB AVERAGE MISS LATENCY: 225.579 cycles
cpu0_ITLB TOTAL     ACCESS:     123258  HIT:     123258  MISS:          0
cpu0_ITLB LOAD      ACCESS:     123258  HIT:     123258  MISS:          0
cpu0_ITLB RFO       ACCESS:          0  HIT:          0  MISS:          0
cpu0_ITLB PREFETCH  ACCESS:          0  HIT:          0  MISS:          0
cpu0_ITLB WRITEBACK ACCESS:          0  HIT:          0  MISS:          0
cpu0_ITLB TRANSLATION ACCESS:          0  HIT:          0  MISS:          0
cpu0_ITLB PREFETCH  REQUESTED:          0  ISSUED:          0  USEFUL:          0  USELESS:          0
cpu0_ITLB AVERAGE MISS LATENCY: -nan cycles
cpu0_STLB TOTAL     ACCESS:      47752  HIT:          0  MISS:      47752
cpu0_STLB LOAD      ACCESS:      11948  HIT:          0  MISS:      11948
cpu0_STLB RFO       ACCESS:      35804  HIT:          0  MISS:      35804
cpu0_STLB PREFETCH  ACCESS:          0  HIT:          0  MISS:          0
cpu0_STLB WRITEBACK ACCESS:          0  HIT:          0  MISS:          0
cpu0_STLB TRANSLATION ACCESS:          0  HIT:          0  MISS:          0
cpu0_STLB PREFETCH  REQUESTED:          0  ISSUED:          0  USEFUL:          0  USELESS:          0
cpu0_STLB AVERAGE MISS LATENCY: 216.579 cycles
cpu0_L1D TOTAL     ACCESS:   14656204  HIT:    9617675  MISS:    5038529
cpu0_L1D LOAD      ACCESS:    4301645  HIT:    3538173  MISS:     763472
cpu0_L1D RFO       ACCESS:   10306807  HIT:    6031797  MISS:    4275010
cpu0_L1D PREFETCH  ACCESS:          0  HIT:          0  MISS:          0
cpu0_L1D WRITEBACK ACCESS:          0  HIT:          0  MISS:          0
cpu0_L1D TRANSLATION ACCESS:      47752  HIT:      47705  MISS:         47
cpu0_L1D PREFETCH  REQUESTED:          0  ISSUED:          0  USEFUL:          0  USELESS:          0
cpu0_L1D AVERAGE MISS LATENCY: 398.557 cycles
cpu0_L2C TOTAL     ACCESS:    9313538  HIT:    6258412  MISS:    3055126
cpu0_L2C LOAD      ACCESS:     763472  HIT:          1  MISS:     763471
cpu0_L2C RFO       ACCESS:    4275010  HIT:    1983499  MISS:    2291511
cpu0_L2C PREFETCH  ACCESS:          0  HIT:          0  MISS:          0
cpu0_L2C WRITEBACK ACCESS:    4275009  HIT:    4274912  MISS:         97
cpu0_L2C TRANSLATION ACCESS:         47  HIT:          0  MISS:         47
cpu0_L2C PREFETCH  REQUESTED:          0  ISSUED:          0  USEFUL:          0  USELESS:          0
cpu0_L2C AVERAGE MISS LATENCY: 637.671 cycles
LLC TOTAL     ACCESS:    5346815  HIT:    1584909  MISS:    3761906
LLC LOAD      ACCESS:     763471  HIT:         74  MISS:     763397
LLC RFO       ACCESS:    2291511  HIT:     550035  MISS:    1741476
LLC PREFETCH  ACCESS:          0  HIT:          0  MISS:          0
LLC WRITEBACK ACCESS:    2291786  HIT:    1034781  MISS:    1257005
LLC TRANSLATION ACCESS:         47  HIT:         19  MISS:         28
LLC PREFETCH  REQUESTED:          0  ISSUED:          0  USEFUL:          0  USELESS:          0
LLC AVERAGE MISS LATENCY: 500.812 cycles

DRAM Statistics
 CHANNEL 0
 RQ ROW_BUFFER_HIT:      38748  ROW_BUFFER_MISS:    2465957
 DBUS AVG_CONGESTED_CYCLE:    3.99565
 WQ ROW_BUFFER_HIT:      18092  ROW_BUFFER_MISS:    1899686  FULL:          0


CPU 0 Branch Prediction Accuracy: 99.132% MPKI: 0.10209 Average ROB Occupancy at Mispredict: 173.666
Branch type MPKI
BRANCH_DIRECT_JUMP: 0
BRANCH_INDIRECT: 0
BRANCH_CONDITIONAL: 0.10209
BRANCH_DIRECT_CALL: 0
BRANCH_INDIRECT_CALL: 0
BRANCH_RETURN: 0

