
*** ChampSim Multicore Out-of-Order Simulator ***

Warmup Instructions: 10000000
Simulation Instructions: 100000000
Number of CPUs: 1
Off-chip DRAM Size: 4 GiB Channels: 1 Width: 64-bit Data Rate: 3200 MT/s

VirtualMemory physical capacity: 8588881920 num_ppages: 2096895
VirtualMemory page size: 4096 log2_page_size: 12

CPU 0 runs /datasets/cs240c-wi22-a00-public/data/Assignment2/leslie3d_94B.trace.xz
CPU 0 Bimodal branch predictor
Basic BTB sets: 1024 ways: 8 indirect buffer size: 4096 RAS size: 64
Initialize Hawkeye state
Initialize SRRIP state
Heartbeat CPU 0 instructions: 10000002 cycles: 4308724 heartbeat IPC: 2.32087 cumulative IPC: 2.32087 (Simulation time: 0 hr 1 min 11 sec) 

Warmup complete CPU 0 instructions: 10000002 cycles: 4308724 (Simulation time: 0 hr 1 min 11 sec) 

Heartbeat CPU 0 instructions: 20000004 cycles: 25217744 heartbeat IPC: 0.478263 cumulative IPC: 0.478263 (Simulation time: 0 hr 3 min 25 sec) 
Heartbeat CPU 0 instructions: 30000001 cycles: 76680443 heartbeat IPC: 0.194315 cumulative IPC: 0.276351 (Simulation time: 0 hr 8 min 0 sec) 
Heartbeat CPU 0 instructions: 40000001 cycles: 87217088 heartbeat IPC: 0.949069 cumulative IPC: 0.361845 (Simulation time: 0 hr 9 min 39 sec) 
Heartbeat CPU 0 instructions: 50000002 cycles: 97517771 heartbeat IPC: 0.97081 cumulative IPC: 0.429143 (Simulation time: 0 hr 11 min 15 sec) 
Heartbeat CPU 0 instructions: 60000003 cycles: 107739900 heartbeat IPC: 0.97827 cumulative IPC: 0.483413 (Simulation time: 0 hr 12 min 53 sec) 
Heartbeat CPU 0 instructions: 70000001 cycles: 117982900 heartbeat IPC: 0.976276 cumulative IPC: 0.527824 (Simulation time: 0 hr 14 min 32 sec) 
Heartbeat CPU 0 instructions: 80000002 cycles: 131671102 heartbeat IPC: 0.730556 cumulative IPC: 0.549613 (Simulation time: 0 hr 16 min 25 sec) 
Heartbeat CPU 0 instructions: 90000004 cycles: 165302730 heartbeat IPC: 0.297339 cumulative IPC: 0.496913 (Simulation time: 0 hr 19 min 52 sec) 
Heartbeat CPU 0 instructions: 100000001 cycles: 220754202 heartbeat IPC: 0.180338 cumulative IPC: 0.415809 (Simulation time: 0 hr 25 min 28 sec) 
Heartbeat CPU 0 instructions: 110000004 cycles: 237310551 heartbeat IPC: 0.603998 cumulative IPC: 0.429181 (Simulation time: 0 hr 27 min 12 sec) 
Finished CPU 0 instructions: 100000002 cycles: 233001827 cumulative IPC: 0.429181 (Simulation time: 0 hr 27 min 12 sec) 

ChampSim completed all CPUs

Region of Interest Statistics

CPU 0 cumulative IPC: 0.429181 instructions: 100000002 cycles: 233001827
cpu0_DTLB TOTAL     ACCESS:   26704566  HIT:   26591918  MISS:     112648
cpu0_DTLB LOAD      ACCESS:   21449659  HIT:   21353918  MISS:      95741
cpu0_DTLB RFO       ACCESS:    5254907  HIT:    5238000  MISS:      16907
cpu0_DTLB PREFETCH  ACCESS:          0  HIT:          0  MISS:          0
cpu0_DTLB WRITEBACK ACCESS:          0  HIT:          0  MISS:          0
cpu0_DTLB TRANSLATION ACCESS:          0  HIT:          0  MISS:          0
cpu0_DTLB PREFETCH  REQUESTED:          0  ISSUED:          0  USEFUL:          0  USELESS:          0
cpu0_DTLB AVERAGE MISS LATENCY: 97.5609 cycles
cpu0_ITLB TOTAL     ACCESS:    3130374  HIT:    3130317  MISS:         57
cpu0_ITLB LOAD      ACCESS:    3130374  HIT:    3130317  MISS:         57
cpu0_ITLB RFO       ACCESS:          0  HIT:          0  MISS:          0
cpu0_ITLB PREFETCH  ACCESS:          0  HIT:          0  MISS:          0
cpu0_ITLB WRITEBACK ACCESS:          0  HIT:          0  MISS:          0
cpu0_ITLB TRANSLATION ACCESS:          0  HIT:          0  MISS:          0
cpu0_ITLB PREFETCH  REQUESTED:          0  ISSUED:          0  USEFUL:          0  USELESS:          0
cpu0_ITLB AVERAGE MISS LATENCY: 253 cycles
cpu0_L1I TOTAL     ACCESS:    1637850  HIT:    1636778  MISS:       1072
cpu0_L1I LOAD      ACCESS:    1637850  HIT:    1636778  MISS:       1072
cpu0_L1I RFO       ACCESS:          0  HIT:          0  MISS:          0
cpu0_L1I PREFETCH  ACCESS:          0  HIT:          0  MISS:          0
cpu0_L1I WRITEBACK ACCESS:          0  HIT:          0  MISS:          0
cpu0_L1I TRANSLATION ACCESS:          0  HIT:          0  MISS:          0
cpu0_L1I PREFETCH  REQUESTED:          0  ISSUED:          0  USEFUL:          0  USELESS:          0
cpu0_L1I AVERAGE MISS LATENCY: 321.955 cycles
cpu0_STLB TOTAL     ACCESS:     112705  HIT:      63009  MISS:      49696
cpu0_STLB LOAD      ACCESS:      95798  HIT:      56446  MISS:      39352
cpu0_STLB RFO       ACCESS:      16907  HIT:       6563  MISS:      10344
cpu0_STLB PREFETCH  ACCESS:          0  HIT:          0  MISS:          0
cpu0_STLB WRITEBACK ACCESS:          0  HIT:          0  MISS:          0
cpu0_STLB TRANSLATION ACCESS:          0  HIT:          0  MISS:          0
cpu0_STLB PREFETCH  REQUESTED:          0  ISSUED:          0  USEFUL:          0  USELESS:          0
cpu0_STLB AVERAGE MISS LATENCY: 200.946 cycles
cpu0_L1D TOTAL     ACCESS:   22217072  HIT:   18181221  MISS:    4035851
cpu0_L1D LOAD      ACCESS:   13838695  HIT:   10749835  MISS:    3088860
cpu0_L1D RFO       ACCESS:    8335974  HIT:    7393890  MISS:     942084
cpu0_L1D PREFETCH  ACCESS:          0  HIT:          0  MISS:          0
cpu0_L1D WRITEBACK ACCESS:          0  HIT:          0  MISS:          0
cpu0_L1D TRANSLATION ACCESS:      42403  HIT:      37496  MISS:       4907
cpu0_L1D PREFETCH  REQUESTED:          0  ISSUED:          0  USEFUL:          0  USELESS:          0
cpu0_L1D AVERAGE MISS LATENCY: 616.472 cycles
cpu0_L2C TOTAL     ACCESS:    5249353  HIT:    2252421  MISS:    2996932
cpu0_L2C LOAD      ACCESS:    3089927  HIT:     791415  MISS:    2298512
cpu0_L2C RFO       ACCESS:     941991  HIT:     246143  MISS:     695848
cpu0_L2C PREFETCH  ACCESS:          0  HIT:          0  MISS:          0
cpu0_L2C WRITEBACK ACCESS:    1212528  HIT:    1210237  MISS:       2291
cpu0_L2C TRANSLATION ACCESS:       4907  HIT:       4626  MISS:        281
cpu0_L2C PREFETCH  REQUESTED:          0  ISSUED:          0  USEFUL:          0  USELESS:          0
cpu0_L2C AVERAGE MISS LATENCY: 815.401 cycles
LLC TOTAL     ACCESS:    3928113  HIT:     662690  MISS:    3265423
LLC LOAD      ACCESS:    2298506  HIT:     394642  MISS:    1903864
LLC RFO       ACCESS:     695839  HIT:      38935  MISS:     656904
LLC PREFETCH  ACCESS:          0  HIT:          0  MISS:          0
LLC WRITEBACK ACCESS:     933487  HIT:     229035  MISS:     704452
LLC TRANSLATION ACCESS:        281  HIT:         78  MISS:        203
LLC PREFETCH  REQUESTED:          0  ISSUED:          0  USEFUL:          0  USELESS:          0
LLC AVERAGE MISS LATENCY: 729.06 cycles

DRAM Statistics
 CHANNEL 0
 RQ ROW_BUFFER_HIT:     170812  ROW_BUFFER_MISS:    2390039
 DBUS AVG_CONGESTED_CYCLE:     3.9736
 WQ ROW_BUFFER_HIT:      44736  ROW_BUFFER_MISS:     820868  FULL:      13560


CPU 0 Branch Prediction Accuracy: 96.9231% MPKI: 1.73686 Average ROB Occupancy at Mispredict: 309.23
Branch type MPKI
BRANCH_DIRECT_JUMP: 0.00082
BRANCH_INDIRECT: 0.00014
BRANCH_CONDITIONAL: 1.73229
BRANCH_DIRECT_CALL: 0.00185
BRANCH_INDIRECT_CALL: 3e-05
BRANCH_RETURN: 0.00173

