
*** ChampSim Multicore Out-of-Order Simulator ***

Warmup Instructions: 10000000
Simulation Instructions: 100000000
Number of CPUs: 1
Off-chip DRAM Size: 4 GiB Channels: 1 Width: 64-bit Data Rate: 3200 MT/s

VirtualMemory physical capacity: 8588881920 num_ppages: 2096895
VirtualMemory page size: 4096 log2_page_size: 12

CPU 0 runs /datasets/cs240c-wi22-a00-public/data/Assignment2/mcf_46B.trace.xz
CPU 0 Bimodal branch predictor
Basic BTB sets: 1024 ways: 8 indirect buffer size: 4096 RAS size: 64
Initialize Hawkeye state
Initialize SRRIP state
Heartbeat CPU 0 instructions: 10000001 cycles: 3434371 heartbeat IPC: 2.91174 cumulative IPC: 2.91174 (Simulation time: 0 hr 0 min 46 sec) 

Warmup complete CPU 0 instructions: 10000001 cycles: 3434371 (Simulation time: 0 hr 0 min 46 sec) 

Heartbeat CPU 0 instructions: 20000001 cycles: 113352333 heartbeat IPC: 0.0909769 cumulative IPC: 0.0909769 (Simulation time: 0 hr 4 min 4 sec) 
Heartbeat CPU 0 instructions: 30000004 cycles: 219566326 heartbeat IPC: 0.0941496 cumulative IPC: 0.0925361 (Simulation time: 0 hr 7 min 14 sec) 
Heartbeat CPU 0 instructions: 40000004 cycles: 325630793 heartbeat IPC: 0.0942823 cumulative IPC: 0.0931109 (Simulation time: 0 hr 10 min 16 sec) 
Heartbeat CPU 0 instructions: 50000003 cycles: 430372671 heartbeat IPC: 0.0954728 cumulative IPC: 0.0936904 (Simulation time: 0 hr 13 min 22 sec) 
Heartbeat CPU 0 instructions: 60000000 cycles: 540360840 heartbeat IPC: 0.0909188 cumulative IPC: 0.0931226 (Simulation time: 0 hr 16 min 37 sec) 
Heartbeat CPU 0 instructions: 70000004 cycles: 651526216 heartbeat IPC: 0.0899561 cumulative IPC: 0.0925795 (Simulation time: 0 hr 19 min 59 sec) 
Heartbeat CPU 0 instructions: 80000003 cycles: 759851447 heartbeat IPC: 0.0923146 cumulative IPC: 0.0925415 (Simulation time: 0 hr 23 min 15 sec) 
Heartbeat CPU 0 instructions: 90000001 cycles: 868523022 heartbeat IPC: 0.0920204 cumulative IPC: 0.0924761 (Simulation time: 0 hr 26 min 31 sec) 
Heartbeat CPU 0 instructions: 100000001 cycles: 977444965 heartbeat IPC: 0.0918089 cumulative IPC: 0.0924015 (Simulation time: 0 hr 29 min 50 sec) 
Heartbeat CPU 0 instructions: 110000002 cycles: 1079548678 heartbeat IPC: 0.0979396 cumulative IPC: 0.0929269 (Simulation time: 0 hr 32 min 56 sec) 
Finished CPU 0 instructions: 100000001 cycles: 1076114307 cumulative IPC: 0.0929269 (Simulation time: 0 hr 32 min 56 sec) 

ChampSim completed all CPUs

Region of Interest Statistics

CPU 0 cumulative IPC: 0.0929269 instructions: 100000001 cycles: 1076114307
cpu0_DTLB TOTAL     ACCESS:   23841225  HIT:   14572592  MISS:    9268633
cpu0_DTLB LOAD      ACCESS:   20110738  HIT:   11369846  MISS:    8740892
cpu0_DTLB RFO       ACCESS:    3730487  HIT:    3202746  MISS:     527741
cpu0_DTLB PREFETCH  ACCESS:          0  HIT:          0  MISS:          0
cpu0_DTLB WRITEBACK ACCESS:          0  HIT:          0  MISS:          0
cpu0_DTLB TRANSLATION ACCESS:          0  HIT:          0  MISS:          0
cpu0_DTLB PREFETCH  REQUESTED:          0  ISSUED:          0  USEFUL:          0  USELESS:          0
cpu0_DTLB AVERAGE MISS LATENCY: 12.5313 cycles
cpu0_ITLB TOTAL     ACCESS:   12711230  HIT:   12711230  MISS:          0
cpu0_ITLB LOAD      ACCESS:   12711230  HIT:   12711230  MISS:          0
cpu0_ITLB RFO       ACCESS:          0  HIT:          0  MISS:          0
cpu0_ITLB PREFETCH  ACCESS:          0  HIT:          0  MISS:          0
cpu0_ITLB WRITEBACK ACCESS:          0  HIT:          0  MISS:          0
cpu0_ITLB TRANSLATION ACCESS:          0  HIT:          0  MISS:          0
cpu0_ITLB PREFETCH  REQUESTED:          0  ISSUED:          0  USEFUL:          0  USELESS:          0
cpu0_ITLB AVERAGE MISS LATENCY: -nan cycles
cpu0_L1I TOTAL     ACCESS:         52  HIT:         52  MISS:          0
cpu0_L1I LOAD      ACCESS:         52  HIT:         52  MISS:          0
cpu0_L1I RFO       ACCESS:          0  HIT:          0  MISS:          0
cpu0_L1I PREFETCH  ACCESS:          0  HIT:          0  MISS:          0
cpu0_L1I WRITEBACK ACCESS:          0  HIT:          0  MISS:          0
cpu0_L1I TRANSLATION ACCESS:          0  HIT:          0  MISS:          0
cpu0_L1I PREFETCH  REQUESTED:          0  ISSUED:          0  USEFUL:          0  USELESS:          0
cpu0_L1I AVERAGE MISS LATENCY: -nan cycles
cpu0_STLB TOTAL     ACCESS:    9268633  HIT:    7945078  MISS:    1323555
cpu0_STLB LOAD      ACCESS:    8740892  HIT:    7428442  MISS:    1312450
cpu0_STLB RFO       ACCESS:     527741  HIT:     516636  MISS:      11105
cpu0_STLB PREFETCH  ACCESS:          0  HIT:          0  MISS:          0
cpu0_STLB WRITEBACK ACCESS:          0  HIT:          0  MISS:          0
cpu0_STLB TRANSLATION ACCESS:          0  HIT:          0  MISS:          0
cpu0_STLB PREFETCH  REQUESTED:          0  ISSUED:          0  USEFUL:          0  USELESS:          0
cpu0_STLB AVERAGE MISS LATENCY: 24.6559 cycles
cpu0_L1D TOTAL     ACCESS:   28042440  HIT:   16265269  MISS:   11777171
cpu0_L1D LOAD      ACCESS:   21744037  HIT:   10440962  MISS:   11303075
cpu0_L1D RFO       ACCESS:    4979279  HIT:    4680467  MISS:     298812
cpu0_L1D PREFETCH  ACCESS:          0  HIT:          0  MISS:          0
cpu0_L1D WRITEBACK ACCESS:          0  HIT:          0  MISS:          0
cpu0_L1D TRANSLATION ACCESS:    1319124  HIT:    1143840  MISS:     175284
cpu0_L1D PREFETCH  REQUESTED:          0  ISSUED:          0  USEFUL:          0  USELESS:          0
cpu0_L1D AVERAGE MISS LATENCY: 252.745 cycles
cpu0_L2C TOTAL     ACCESS:   14259001  HIT:    5811535  MISS:    8447466
cpu0_L2C LOAD      ACCESS:   11302615  HIT:    3070127  MISS:    8232488
cpu0_L2C RFO       ACCESS:     298800  HIT:     121274  MISS:     177526
cpu0_L2C PREFETCH  ACCESS:          0  HIT:          0  MISS:          0
cpu0_L2C WRITEBACK ACCESS:    2482302  HIT:    2481706  MISS:        596
cpu0_L2C TRANSLATION ACCESS:     175284  HIT:     138428  MISS:      36856
cpu0_L2C PREFETCH  REQUESTED:          0  ISSUED:          0  USEFUL:          0  USELESS:          0
cpu0_L2C AVERAGE MISS LATENCY: 336.926 cycles
LLC TOTAL     ACCESS:   10352481  HIT:    3974184  MISS:    6378297
LLC LOAD      ACCESS:    8232488  HIT:    2732404  MISS:    5500084
LLC RFO       ACCESS:     177526  HIT:      86491  MISS:      91035
LLC PREFETCH  ACCESS:          0  HIT:          0  MISS:          0
LLC WRITEBACK ACCESS:    1905611  HIT:    1146950  MISS:     758661
LLC TRANSLATION ACCESS:      36856  HIT:       8339  MISS:      28517
LLC PREFETCH  REQUESTED:          0  ISSUED:          0  USEFUL:          0  USELESS:          0
LLC AVERAGE MISS LATENCY: 418.417 cycles

DRAM Statistics
 CHANNEL 0
 RQ ROW_BUFFER_HIT:      13069  ROW_BUFFER_MISS:    5605670
 DBUS AVG_CONGESTED_CYCLE:    3.95274
 WQ ROW_BUFFER_HIT:      32117  ROW_BUFFER_MISS:    1222403  FULL:          0


CPU 0 Branch Prediction Accuracy: 85.442% MPKI: 39.3219 Average ROB Occupancy at Mispredict: 18.9088
Branch type MPKI
BRANCH_DIRECT_JUMP: 0
BRANCH_INDIRECT: 0
BRANCH_CONDITIONAL: 39.3219
BRANCH_DIRECT_CALL: 0
BRANCH_INDIRECT_CALL: 0
BRANCH_RETURN: 0

