
*** ChampSim Multicore Out-of-Order Simulator ***

Warmup Instructions: 10000000
Simulation Instructions: 100000000
Number of CPUs: 1
Off-chip DRAM Size: 4 GiB Channels: 1 Width: 64-bit Data Rate: 3200 MT/s

VirtualMemory physical capacity: 8588881920 num_ppages: 2096895
VirtualMemory page size: 4096 log2_page_size: 12

CPU 0 runs /datasets/cs240c-wi22-a00-public/data/Assignment2/omnetpp_340B.trace.xz
CPU 0 Bimodal branch predictor
Basic BTB sets: 1024 ways: 8 indirect buffer size: 4096 RAS size: 64
Initialize Hawkeye state
Initialize SRRIP state
Heartbeat CPU 0 instructions: 10000002 cycles: 2500207 heartbeat IPC: 3.99967 cumulative IPC: 3.99967 (Simulation time: 0 hr 0 min 36 sec) 

Warmup complete CPU 0 instructions: 10000002 cycles: 2500207 (Simulation time: 0 hr 0 min 36 sec) 

Heartbeat CPU 0 instructions: 20000000 cycles: 27779919 heartbeat IPC: 0.395574 cumulative IPC: 0.395574 (Simulation time: 0 hr 1 min 54 sec) 
Heartbeat CPU 0 instructions: 30000002 cycles: 52738590 heartbeat IPC: 0.400662 cumulative IPC: 0.398102 (Simulation time: 0 hr 3 min 3 sec) 
Heartbeat CPU 0 instructions: 40000000 cycles: 77401637 heartbeat IPC: 0.405465 cumulative IPC: 0.400526 (Simulation time: 0 hr 4 min 17 sec) 
Heartbeat CPU 0 instructions: 50000002 cycles: 102518207 heartbeat IPC: 0.398144 cumulative IPC: 0.399928 (Simulation time: 0 hr 5 min 27 sec) 
Heartbeat CPU 0 instructions: 60000001 cycles: 128819426 heartbeat IPC: 0.38021 cumulative IPC: 0.395823 (Simulation time: 0 hr 6 min 39 sec) 
Heartbeat CPU 0 instructions: 70000002 cycles: 155056830 heartbeat IPC: 0.381135 cumulative IPC: 0.393297 (Simulation time: 0 hr 7 min 46 sec) 
Heartbeat CPU 0 instructions: 80000003 cycles: 181227635 heartbeat IPC: 0.382105 cumulative IPC: 0.391658 (Simulation time: 0 hr 9 min 7 sec) 
Heartbeat CPU 0 instructions: 90000000 cycles: 207219036 heartbeat IPC: 0.384743 cumulative IPC: 0.39078 (Simulation time: 0 hr 10 min 20 sec) 
Heartbeat CPU 0 instructions: 100000000 cycles: 234103857 heartbeat IPC: 0.371957 cumulative IPC: 0.388595 (Simulation time: 0 hr 11 min 45 sec) 
Heartbeat CPU 0 instructions: 110000000 cycles: 259298138 heartbeat IPC: 0.396915 cumulative IPC: 0.389411 (Simulation time: 0 hr 13 min 11 sec) 
Finished CPU 0 instructions: 100000000 cycles: 256797933 cumulative IPC: 0.389411 (Simulation time: 0 hr 13 min 11 sec) 

ChampSim completed all CPUs

Region of Interest Statistics

CPU 0 cumulative IPC: 0.389411 instructions: 100000000 cycles: 256797933
cpu0_DTLB TOTAL     ACCESS:   23847458  HIT:   21950315  MISS:    1897143
cpu0_DTLB LOAD      ACCESS:   13875501  HIT:   12294362  MISS:    1581139
cpu0_DTLB RFO       ACCESS:    9971957  HIT:    9655953  MISS:     316004
cpu0_DTLB PREFETCH  ACCESS:          0  HIT:          0  MISS:          0
cpu0_DTLB WRITEBACK ACCESS:          0  HIT:          0  MISS:          0
cpu0_DTLB TRANSLATION ACCESS:          0  HIT:          0  MISS:          0
cpu0_DTLB PREFETCH  REQUESTED:          0  ISSUED:          0  USEFUL:          0  USELESS:          0
cpu0_DTLB AVERAGE MISS LATENCY: 13.1587 cycles
cpu0_ITLB TOTAL     ACCESS:   11128318  HIT:   11092951  MISS:      35367
cpu0_ITLB LOAD      ACCESS:   11128318  HIT:   11092951  MISS:      35367
cpu0_ITLB RFO       ACCESS:          0  HIT:          0  MISS:          0
cpu0_ITLB PREFETCH  ACCESS:          0  HIT:          0  MISS:          0
cpu0_ITLB WRITEBACK ACCESS:          0  HIT:          0  MISS:          0
cpu0_ITLB TRANSLATION ACCESS:          0  HIT:          0  MISS:          0
cpu0_ITLB PREFETCH  REQUESTED:          0  ISSUED:          0  USEFUL:          0  USELESS:          0
cpu0_ITLB AVERAGE MISS LATENCY: 9.2752 cycles
cpu0_L1I TOTAL     ACCESS:    8347935  HIT:    8341584  MISS:       6351
cpu0_L1I LOAD      ACCESS:    8347935  HIT:    8341584  MISS:       6351
cpu0_L1I RFO       ACCESS:          0  HIT:          0  MISS:          0
cpu0_L1I PREFETCH  ACCESS:          0  HIT:          0  MISS:          0
cpu0_L1I WRITEBACK ACCESS:          0  HIT:          0  MISS:          0
cpu0_L1I TRANSLATION ACCESS:          0  HIT:          0  MISS:          0
cpu0_L1I PREFETCH  REQUESTED:          0  ISSUED:          0  USEFUL:          0  USELESS:          0
cpu0_L1I AVERAGE MISS LATENCY: 56.5154 cycles
cpu0_STLB TOTAL     ACCESS:    1932510  HIT:    1457314  MISS:     475196
cpu0_STLB LOAD      ACCESS:    1616506  HIT:    1262619  MISS:     353887
cpu0_STLB RFO       ACCESS:     316004  HIT:     194695  MISS:     121309
cpu0_STLB PREFETCH  ACCESS:          0  HIT:          0  MISS:          0
cpu0_STLB WRITEBACK ACCESS:          0  HIT:          0  MISS:          0
cpu0_STLB TRANSLATION ACCESS:          0  HIT:          0  MISS:          0
cpu0_STLB PREFETCH  REQUESTED:          0  ISSUED:          0  USEFUL:          0  USELESS:          0
cpu0_STLB AVERAGE MISS LATENCY: 16.1527 cycles
cpu0_L1D TOTAL     ACCESS:   31437830  HIT:   28939927  MISS:    2497903
cpu0_L1D LOAD      ACCESS:   15709105  HIT:   13525926  MISS:    2183179
cpu0_L1D RFO       ACCESS:   15288334  HIT:   14978114  MISS:     310220
cpu0_L1D PREFETCH  ACCESS:          0  HIT:          0  MISS:          0
cpu0_L1D WRITEBACK ACCESS:          0  HIT:          0  MISS:          0
cpu0_L1D TRANSLATION ACCESS:     440391  HIT:     435887  MISS:       4504
cpu0_L1D PREFETCH  REQUESTED:          0  ISSUED:          0  USEFUL:          0  USELESS:          0
cpu0_L1D AVERAGE MISS LATENCY: 144.298 cycles
cpu0_L2C TOTAL     ACCESS:    3581301  HIT:    1431310  MISS:    2149991
cpu0_L2C LOAD      ACCESS:    2189491  HIT:     331022  MISS:    1858469
cpu0_L2C RFO       ACCESS:     310220  HIT:      22068  MISS:     288152
cpu0_L2C PREFETCH  ACCESS:          0  HIT:          0  MISS:          0
cpu0_L2C WRITEBACK ACCESS:    1077086  HIT:    1074813  MISS:       2273
cpu0_L2C TRANSLATION ACCESS:       4504  HIT:       3407  MISS:       1097
cpu0_L2C PREFETCH  REQUESTED:          0  ISSUED:          0  USEFUL:          0  USELESS:          0
cpu0_L2C AVERAGE MISS LATENCY: 154.844 cycles
LLC TOTAL     ACCESS:    3079014  HIT:    1057138  MISS:    2021876
LLC LOAD      ACCESS:    1858468  HIT:     425867  MISS:    1432601
LLC RFO       ACCESS:     288152  HIT:      66318  MISS:     221834
LLC PREFETCH  ACCESS:          0  HIT:          0  MISS:          0
LLC WRITEBACK ACCESS:     931297  HIT:     564245  MISS:     367052
LLC TRANSLATION ACCESS:       1097  HIT:        708  MISS:        389
LLC PREFETCH  REQUESTED:          0  ISSUED:          0  USEFUL:          0  USELESS:          0
LLC AVERAGE MISS LATENCY: 142.349 cycles

DRAM Statistics
 CHANNEL 0
 RQ ROW_BUFFER_HIT:      88482  ROW_BUFFER_MISS:    1566221
 DBUS AVG_CONGESTED_CYCLE:    3.91918
 WQ ROW_BUFFER_HIT:     172083  ROW_BUFFER_MISS:     535055  FULL:          0


CPU 0 Branch Prediction Accuracy: 94.4212% MPKI: 13.4017 Average ROB Occupancy at Mispredict: 52.4788
Branch type MPKI
BRANCH_DIRECT_JUMP: 0.00017
BRANCH_INDIRECT: 0.04543
BRANCH_CONDITIONAL: 13.2857
BRANCH_DIRECT_CALL: 8e-05
BRANCH_INDIRECT_CALL: 0.04734
BRANCH_RETURN: 0.02301

