
*** ChampSim Multicore Out-of-Order Simulator ***

Warmup Instructions: 10000000
Simulation Instructions: 100000000
Number of CPUs: 1
Off-chip DRAM Size: 4 GiB Channels: 1 Width: 64-bit Data Rate: 3200 MT/s

VirtualMemory physical capacity: 8588881920 num_ppages: 2096895
VirtualMemory page size: 4096 log2_page_size: 12

CPU 0 runs /datasets/cs240c-wi22-a00-public/data/Assignment2/omnetpp_4B.trace.xz
CPU 0 Bimodal branch predictor
Basic BTB sets: 1024 ways: 8 indirect buffer size: 4096 RAS size: 64
Initialize Hawkeye state
Initialize SRRIP state
Heartbeat CPU 0 instructions: 10000002 cycles: 2526474 heartbeat IPC: 3.95809 cumulative IPC: 3.95809 (Simulation time: 0 hr 0 min 26 sec) 

Warmup complete CPU 0 instructions: 10000002 cycles: 2526474 (Simulation time: 0 hr 0 min 26 sec) 

Heartbeat CPU 0 instructions: 20000000 cycles: 8961178 heartbeat IPC: 1.55407 cumulative IPC: 1.55407 (Simulation time: 0 hr 1 min 3 sec) 
Heartbeat CPU 0 instructions: 30000001 cycles: 15522832 heartbeat IPC: 1.52401 cumulative IPC: 1.53889 (Simulation time: 0 hr 1 min 45 sec) 
Heartbeat CPU 0 instructions: 40000002 cycles: 22105663 heartbeat IPC: 1.5191 cumulative IPC: 1.53224 (Simulation time: 0 hr 2 min 24 sec) 
Heartbeat CPU 0 instructions: 50000000 cycles: 28855457 heartbeat IPC: 1.48153 cumulative IPC: 1.51924 (Simulation time: 0 hr 3 min 5 sec) 
Heartbeat CPU 0 instructions: 60000000 cycles: 35476328 heartbeat IPC: 1.51038 cumulative IPC: 1.51746 (Simulation time: 0 hr 3 min 46 sec) 
Heartbeat CPU 0 instructions: 70000000 cycles: 42027793 heartbeat IPC: 1.52638 cumulative IPC: 1.51894 (Simulation time: 0 hr 4 min 26 sec) 
Heartbeat CPU 0 instructions: 80000000 cycles: 48614787 heartbeat IPC: 1.51814 cumulative IPC: 1.51882 (Simulation time: 0 hr 5 min 6 sec) 
Heartbeat CPU 0 instructions: 90000000 cycles: 55490523 heartbeat IPC: 1.45439 cumulative IPC: 1.51046 (Simulation time: 0 hr 5 min 50 sec) 
Heartbeat CPU 0 instructions: 100000001 cycles: 61827703 heartbeat IPC: 1.57799 cumulative IPC: 1.51768 (Simulation time: 0 hr 6 min 26 sec) 
Heartbeat CPU 0 instructions: 110000002 cycles: 68590183 heartbeat IPC: 1.47875 cumulative IPC: 1.51369 (Simulation time: 0 hr 7 min 9 sec) 
Finished CPU 0 instructions: 100000000 cycles: 66063709 cumulative IPC: 1.51369 (Simulation time: 0 hr 7 min 9 sec) 

ChampSim completed all CPUs

Region of Interest Statistics

CPU 0 cumulative IPC: 1.51369 instructions: 100000000 cycles: 66063709
cpu0_DTLB TOTAL     ACCESS:   11686823  HIT:   10254957  MISS:    1431866
cpu0_DTLB LOAD      ACCESS:    9100365  HIT:    7670062  MISS:    1430303
cpu0_DTLB RFO       ACCESS:    2586458  HIT:    2584895  MISS:       1563
cpu0_DTLB PREFETCH  ACCESS:          0  HIT:          0  MISS:          0
cpu0_DTLB WRITEBACK ACCESS:          0  HIT:          0  MISS:          0
cpu0_DTLB TRANSLATION ACCESS:          0  HIT:          0  MISS:          0
cpu0_DTLB PREFETCH  REQUESTED:          0  ISSUED:          0  USEFUL:          0  USELESS:          0
cpu0_DTLB AVERAGE MISS LATENCY: 17.5322 cycles
cpu0_ITLB TOTAL     ACCESS:    7987634  HIT:    7963467  MISS:      24167
cpu0_ITLB LOAD      ACCESS:    7987634  HIT:    7963467  MISS:      24167
cpu0_ITLB RFO       ACCESS:          0  HIT:          0  MISS:          0
cpu0_ITLB PREFETCH  ACCESS:          0  HIT:          0  MISS:          0
cpu0_ITLB WRITEBACK ACCESS:          0  HIT:          0  MISS:          0
cpu0_ITLB TRANSLATION ACCESS:          0  HIT:          0  MISS:          0
cpu0_ITLB PREFETCH  REQUESTED:          0  ISSUED:          0  USEFUL:          0  USELESS:          0
cpu0_ITLB AVERAGE MISS LATENCY: 10.8421 cycles
cpu0_L1I TOTAL     ACCESS:    1939541  HIT:    1876628  MISS:      62913
cpu0_L1I LOAD      ACCESS:    1939541  HIT:    1876628  MISS:      62913
cpu0_L1I RFO       ACCESS:          0  HIT:          0  MISS:          0
cpu0_L1I PREFETCH  ACCESS:          0  HIT:          0  MISS:          0
cpu0_L1I WRITEBACK ACCESS:          0  HIT:          0  MISS:          0
cpu0_L1I TRANSLATION ACCESS:          0  HIT:          0  MISS:          0
cpu0_L1I PREFETCH  REQUESTED:          0  ISSUED:          0  USEFUL:          0  USELESS:          0
cpu0_L1I AVERAGE MISS LATENCY: 43.7623 cycles
cpu0_STLB TOTAL     ACCESS:    1456033  HIT:      23479  MISS:    1432554
cpu0_STLB LOAD      ACCESS:    1454470  HIT:      22733  MISS:    1431737
cpu0_STLB RFO       ACCESS:       1563  HIT:        746  MISS:        817
cpu0_STLB PREFETCH  ACCESS:          0  HIT:          0  MISS:          0
cpu0_STLB WRITEBACK ACCESS:          0  HIT:          0  MISS:          0
cpu0_STLB TRANSLATION ACCESS:          0  HIT:          0  MISS:          0
cpu0_STLB PREFETCH  REQUESTED:          0  ISSUED:          0  USEFUL:          0  USELESS:          0
cpu0_STLB AVERAGE MISS LATENCY: 8.11204 cycles
cpu0_L1D TOTAL     ACCESS:   12545871  HIT:   10055968  MISS:    2489903
cpu0_L1D LOAD      ACCESS:    7278004  HIT:    4826829  MISS:    2451175
cpu0_L1D RFO       ACCESS:    4652562  HIT:    4614821  MISS:      37741
cpu0_L1D PREFETCH  ACCESS:          0  HIT:          0  MISS:          0
cpu0_L1D WRITEBACK ACCESS:          0  HIT:          0  MISS:          0
cpu0_L1D TRANSLATION ACCESS:     615305  HIT:     614318  MISS:        987
cpu0_L1D PREFETCH  REQUESTED:          0  ISSUED:          0  USEFUL:          0  USELESS:          0
cpu0_L1D AVERAGE MISS LATENCY: 60.9328 cycles
cpu0_L2C TOTAL     ACCESS:    2633767  HIT:     114345  MISS:    2519422
cpu0_L2C LOAD      ACCESS:    2514087  HIT:      32408  MISS:    2481679
cpu0_L2C RFO       ACCESS:      37741  HIT:        794  MISS:      36947
cpu0_L2C PREFETCH  ACCESS:          0  HIT:          0  MISS:          0
cpu0_L2C WRITEBACK ACCESS:      80952  HIT:      80952  MISS:          0
cpu0_L2C TRANSLATION ACCESS:        987  HIT:        191  MISS:        796
cpu0_L2C PREFETCH  REQUESTED:          0  ISSUED:          0  USEFUL:          0  USELESS:          0
cpu0_L2C AVERAGE MISS LATENCY: 49.4984 cycles
LLC TOTAL     ACCESS:    2598964  HIT:    2342746  MISS:     256218
LLC LOAD      ACCESS:    2481676  HIT:    2249674  MISS:     232002
LLC RFO       ACCESS:      36947  HIT:      20183  MISS:      16764
LLC PREFETCH  ACCESS:          0  HIT:          0  MISS:          0
LLC WRITEBACK ACCESS:      79545  HIT:      72135  MISS:       7410
LLC TRANSLATION ACCESS:        796  HIT:        754  MISS:         42
LLC PREFETCH  REQUESTED:          0  ISSUED:          0  USEFUL:          0  USELESS:          0
LLC AVERAGE MISS LATENCY: 280.133 cycles

DRAM Statistics
 CHANNEL 0
 RQ ROW_BUFFER_HIT:      22124  ROW_BUFFER_MISS:     225521
 DBUS AVG_CONGESTED_CYCLE:    3.94079
 WQ ROW_BUFFER_HIT:       5747  ROW_BUFFER_MISS:      42480  FULL:          0


CPU 0 Branch Prediction Accuracy: 97.4293% MPKI: 8.26178 Average ROB Occupancy at Mispredict: 57.0116
Branch type MPKI
BRANCH_DIRECT_JUMP: 0.00037
BRANCH_INDIRECT: 0.12485
BRANCH_CONDITIONAL: 8.10493
BRANCH_DIRECT_CALL: 0.00326
BRANCH_INDIRECT_CALL: 0.00558
BRANCH_RETURN: 0.02279

