
*** ChampSim Multicore Out-of-Order Simulator ***

Warmup Instructions: 10000000
Simulation Instructions: 100000000
Number of CPUs: 1
Off-chip DRAM Size: 4 GiB Channels: 1 Width: 64-bit Data Rate: 3200 MT/s

VirtualMemory physical capacity: 8588881920 num_ppages: 2096895
VirtualMemory page size: 4096 log2_page_size: 12

CPU 0 runs /datasets/cs240c-wi22-a00-public/data/Assignment2/omnetpp_17B.trace.xz
CPU 0 Bimodal branch predictor
Basic BTB sets: 1024 ways: 8 indirect buffer size: 4096 RAS size: 64
Initialize Hawkeye state
Initialize SRRIP state
Heartbeat CPU 0 instructions: 10000002 cycles: 2500125 heartbeat IPC: 3.9998 cumulative IPC: 3.9998 (Simulation time: 0 hr 0 min 23 sec) 

Warmup complete CPU 0 instructions: 10000002 cycles: 2500125 (Simulation time: 0 hr 0 min 23 sec) 

Heartbeat CPU 0 instructions: 20000003 cycles: 8190398 heartbeat IPC: 1.75739 cumulative IPC: 1.75739 (Simulation time: 0 hr 0 min 48 sec) 
Heartbeat CPU 0 instructions: 30000000 cycles: 15089510 heartbeat IPC: 1.44946 cumulative IPC: 1.58864 (Simulation time: 0 hr 1 min 26 sec) 
Heartbeat CPU 0 instructions: 40000001 cycles: 21898450 heartbeat IPC: 1.46866 cumulative IPC: 1.54653 (Simulation time: 0 hr 2 min 2 sec) 
Heartbeat CPU 0 instructions: 50000001 cycles: 27769752 heartbeat IPC: 1.7032 cumulative IPC: 1.58293 (Simulation time: 0 hr 2 min 34 sec) 
Heartbeat CPU 0 instructions: 60000001 cycles: 33807113 heartbeat IPC: 1.65635 cumulative IPC: 1.59709 (Simulation time: 0 hr 3 min 8 sec) 
Heartbeat CPU 0 instructions: 70000000 cycles: 40515059 heartbeat IPC: 1.49077 cumulative IPC: 1.57833 (Simulation time: 0 hr 3 min 52 sec) 
Heartbeat CPU 0 instructions: 80000002 cycles: 47307054 heartbeat IPC: 1.47232 cumulative IPC: 1.56226 (Simulation time: 0 hr 4 min 31 sec) 
Heartbeat CPU 0 instructions: 90000003 cycles: 54044228 heartbeat IPC: 1.4843 cumulative IPC: 1.55207 (Simulation time: 0 hr 5 min 7 sec) 
Heartbeat CPU 0 instructions: 100000002 cycles: 59392803 heartbeat IPC: 1.86966 cumulative IPC: 1.58193 (Simulation time: 0 hr 5 min 29 sec) 
Heartbeat CPU 0 instructions: 110000001 cycles: 66062694 heartbeat IPC: 1.49927 cumulative IPC: 1.57325 (Simulation time: 0 hr 6 min 9 sec) 
Finished CPU 0 instructions: 100000004 cycles: 63562576 cumulative IPC: 1.57325 (Simulation time: 0 hr 6 min 9 sec) 

ChampSim completed all CPUs

Region of Interest Statistics

CPU 0 cumulative IPC: 1.57325 instructions: 100000004 cycles: 63562576
cpu0_DTLB TOTAL     ACCESS:   10201803  HIT:    9136981  MISS:    1064822
cpu0_DTLB LOAD      ACCESS:    8264413  HIT:    7201471  MISS:    1062942
cpu0_DTLB RFO       ACCESS:    1937390  HIT:    1935510  MISS:       1880
cpu0_DTLB PREFETCH  ACCESS:          0  HIT:          0  MISS:          0
cpu0_DTLB WRITEBACK ACCESS:          0  HIT:          0  MISS:          0
cpu0_DTLB TRANSLATION ACCESS:          0  HIT:          0  MISS:          0
cpu0_DTLB PREFETCH  REQUESTED:          0  ISSUED:          0  USEFUL:          0  USELESS:          0
cpu0_DTLB AVERAGE MISS LATENCY: 18.5512 cycles
cpu0_ITLB TOTAL     ACCESS:    8332672  HIT:    8330615  MISS:       2057
cpu0_ITLB LOAD      ACCESS:    8332672  HIT:    8330615  MISS:       2057
cpu0_ITLB RFO       ACCESS:          0  HIT:          0  MISS:          0
cpu0_ITLB PREFETCH  ACCESS:          0  HIT:          0  MISS:          0
cpu0_ITLB WRITEBACK ACCESS:          0  HIT:          0  MISS:          0
cpu0_ITLB TRANSLATION ACCESS:          0  HIT:          0  MISS:          0
cpu0_ITLB PREFETCH  REQUESTED:          0  ISSUED:          0  USEFUL:          0  USELESS:          0
cpu0_ITLB AVERAGE MISS LATENCY: 15.6315 cycles
cpu0_L1I TOTAL     ACCESS:    1054849  HIT:    1050510  MISS:       4339
cpu0_L1I LOAD      ACCESS:    1054849  HIT:    1050510  MISS:       4339
cpu0_L1I RFO       ACCESS:          0  HIT:          0  MISS:          0
cpu0_L1I PREFETCH  ACCESS:          0  HIT:          0  MISS:          0
cpu0_L1I WRITEBACK ACCESS:          0  HIT:          0  MISS:          0
cpu0_L1I TRANSLATION ACCESS:          0  HIT:          0  MISS:          0
cpu0_L1I PREFETCH  REQUESTED:          0  ISSUED:          0  USEFUL:          0  USELESS:          0
cpu0_L1I AVERAGE MISS LATENCY: 61.8956 cycles
cpu0_STLB TOTAL     ACCESS:    1066879  HIT:      12764  MISS:    1054115
cpu0_STLB LOAD      ACCESS:    1064999  HIT:      11400  MISS:    1053599
cpu0_STLB RFO       ACCESS:       1880  HIT:       1364  MISS:        516
cpu0_STLB PREFETCH  ACCESS:          0  HIT:          0  MISS:          0
cpu0_STLB WRITEBACK ACCESS:          0  HIT:          0  MISS:          0
cpu0_STLB TRANSLATION ACCESS:          0  HIT:          0  MISS:          0
cpu0_STLB PREFETCH  REQUESTED:          0  ISSUED:          0  USEFUL:          0  USELESS:          0
cpu0_STLB AVERAGE MISS LATENCY: 9.26754 cycles
cpu0_L1D TOTAL     ACCESS:   10314936  HIT:    8560543  MISS:    1754393
cpu0_L1D LOAD      ACCESS:    6459249  HIT:    4718961  MISS:    1740288
cpu0_L1D RFO       ACCESS:    3337542  HIT:    3324483  MISS:      13059
cpu0_L1D PREFETCH  ACCESS:          0  HIT:          0  MISS:          0
cpu0_L1D WRITEBACK ACCESS:          0  HIT:          0  MISS:          0
cpu0_L1D TRANSLATION ACCESS:     518145  HIT:     517099  MISS:       1046
cpu0_L1D PREFETCH  REQUESTED:          0  ISSUED:          0  USEFUL:          0  USELESS:          0
cpu0_L1D AVERAGE MISS LATENCY: 93.6042 cycles
cpu0_L2C TOTAL     ACCESS:    1775542  HIT:      23254  MISS:    1752288
cpu0_L2C LOAD      ACCESS:    1744627  HIT:       5922  MISS:    1738705
cpu0_L2C RFO       ACCESS:      13059  HIT:        137  MISS:      12922
cpu0_L2C PREFETCH  ACCESS:          0  HIT:          0  MISS:          0
cpu0_L2C WRITEBACK ACCESS:      16810  HIT:      16810  MISS:          0
cpu0_L2C TRANSLATION ACCESS:       1046  HIT:        385  MISS:        661
cpu0_L2C PREFETCH  REQUESTED:          0  ISSUED:          0  USEFUL:          0  USELESS:          0
cpu0_L2C AVERAGE MISS LATENCY: 82.2584 cycles
LLC TOTAL     ACCESS:    1768994  HIT:    1473960  MISS:     295034
LLC LOAD      ACCESS:    1738705  HIT:    1460878  MISS:     277827
LLC RFO       ACCESS:      12922  HIT:       2435  MISS:      10487
LLC PREFETCH  ACCESS:          0  HIT:          0  MISS:          0
LLC WRITEBACK ACCESS:      16706  HIT:      10087  MISS:       6619
LLC TRANSLATION ACCESS:        661  HIT:        560  MISS:        101
LLC PREFETCH  REQUESTED:          0  ISSUED:          0  USEFUL:          0  USELESS:          0
LLC AVERAGE MISS LATENCY: 363.759 cycles

DRAM Statistics
 CHANNEL 0
 RQ ROW_BUFFER_HIT:       6778  ROW_BUFFER_MISS:     281499
 DBUS AVG_CONGESTED_CYCLE:    3.96663
 WQ ROW_BUFFER_HIT:       3242  ROW_BUFFER_MISS:       8489  FULL:          0


CPU 0 Branch Prediction Accuracy: 97.6159% MPKI: 7.87238 Average ROB Occupancy at Mispredict: 63.2912
Branch type MPKI
BRANCH_DIRECT_JUMP: 0.00032
BRANCH_INDIRECT: 0.08474
BRANCH_CONDITIONAL: 7.75802
BRANCH_DIRECT_CALL: 0.00068
BRANCH_INDIRECT_CALL: 0.00292
BRANCH_RETURN: 0.0257

