
*** ChampSim Multicore Out-of-Order Simulator ***

Warmup Instructions: 10000000
Simulation Instructions: 100000000
Number of CPUs: 1
Off-chip DRAM Size: 4 GiB Channels: 1 Width: 64-bit Data Rate: 3200 MT/s

VirtualMemory physical capacity: 8588881920 num_ppages: 2096895
VirtualMemory page size: 4096 log2_page_size: 12

CPU 0 runs /datasets/cs240c-wi22-a00-public/data/Assignment2/sphinx3_1339B.trace.xz
CPU 0 Bimodal branch predictor
Basic BTB sets: 1024 ways: 8 indirect buffer size: 4096 RAS size: 64
Initialize Hawkeye state
Initialize SRRIP state
Heartbeat CPU 0 instructions: 10000000 cycles: 2584402 heartbeat IPC: 3.86937 cumulative IPC: 3.86937 (Simulation time: 0 hr 0 min 28 sec) 

Warmup complete CPU 0 instructions: 10000004 cycles: 2584403 (Simulation time: 0 hr 0 min 28 sec) 

Heartbeat CPU 0 instructions: 20000003 cycles: 10721469 heartbeat IPC: 1.22894 cumulative IPC: 1.22894 (Simulation time: 0 hr 1 min 14 sec) 
Heartbeat CPU 0 instructions: 30000001 cycles: 18626797 heartbeat IPC: 1.26497 cumulative IPC: 1.2467 (Simulation time: 0 hr 2 min 1 sec) 
Heartbeat CPU 0 instructions: 40000003 cycles: 26962387 heartbeat IPC: 1.19968 cumulative IPC: 1.23062 (Simulation time: 0 hr 2 min 50 sec) 
Heartbeat CPU 0 instructions: 50000004 cycles: 34745173 heartbeat IPC: 1.28489 cumulative IPC: 1.24375 (Simulation time: 0 hr 3 min 35 sec) 
Heartbeat CPU 0 instructions: 60000003 cycles: 42320907 heartbeat IPC: 1.32 cumulative IPC: 1.25829 (Simulation time: 0 hr 4 min 20 sec) 
Heartbeat CPU 0 instructions: 70000002 cycles: 50039256 heartbeat IPC: 1.29561 cumulative IPC: 1.26436 (Simulation time: 0 hr 5 min 5 sec) 
Heartbeat CPU 0 instructions: 80000001 cycles: 57435083 heartbeat IPC: 1.35211 cumulative IPC: 1.27619 (Simulation time: 0 hr 5 min 51 sec) 
Heartbeat CPU 0 instructions: 90000001 cycles: 64655491 heartbeat IPC: 1.38496 cumulative IPC: 1.28884 (Simulation time: 0 hr 6 min 34 sec) 
Heartbeat CPU 0 instructions: 100000001 cycles: 72264337 heartbeat IPC: 1.31426 cumulative IPC: 1.29162 (Simulation time: 0 hr 7 min 19 sec) 
Heartbeat CPU 0 instructions: 110000000 cycles: 80975038 heartbeat IPC: 1.14801 cumulative IPC: 1.27566 (Simulation time: 0 hr 8 min 7 sec) 
Finished CPU 0 instructions: 100000001 cycles: 78390636 cumulative IPC: 1.27566 (Simulation time: 0 hr 8 min 7 sec) 

ChampSim completed all CPUs

Region of Interest Statistics

CPU 0 cumulative IPC: 1.27566 instructions: 100000001 cycles: 78390636
cpu0_DTLB TOTAL     ACCESS:   16239024  HIT:   16130238  MISS:     108786
cpu0_DTLB LOAD      ACCESS:   15078075  HIT:   14975207  MISS:     102868
cpu0_DTLB RFO       ACCESS:    1160949  HIT:    1155031  MISS:       5918
cpu0_DTLB PREFETCH  ACCESS:          0  HIT:          0  MISS:          0
cpu0_DTLB WRITEBACK ACCESS:          0  HIT:          0  MISS:          0
cpu0_DTLB TRANSLATION ACCESS:          0  HIT:          0  MISS:          0
cpu0_DTLB PREFETCH  REQUESTED:          0  ISSUED:          0  USEFUL:          0  USELESS:          0
cpu0_DTLB AVERAGE MISS LATENCY: 13.4072 cycles
cpu0_ITLB TOTAL     ACCESS:    9278259  HIT:    9278217  MISS:         42
cpu0_ITLB LOAD      ACCESS:    9278259  HIT:    9278217  MISS:         42
cpu0_ITLB RFO       ACCESS:          0  HIT:          0  MISS:          0
cpu0_ITLB PREFETCH  ACCESS:          0  HIT:          0  MISS:          0
cpu0_ITLB WRITEBACK ACCESS:          0  HIT:          0  MISS:          0
cpu0_ITLB TRANSLATION ACCESS:          0  HIT:          0  MISS:          0
cpu0_ITLB PREFETCH  REQUESTED:          0  ISSUED:          0  USEFUL:          0  USELESS:          0
cpu0_ITLB AVERAGE MISS LATENCY: 122.881 cycles
cpu0_L1I TOTAL     ACCESS:     299695  HIT:     298125  MISS:       1570
cpu0_L1I LOAD      ACCESS:     299695  HIT:     298125  MISS:       1570
cpu0_L1I RFO       ACCESS:          0  HIT:          0  MISS:          0
cpu0_L1I PREFETCH  ACCESS:          0  HIT:          0  MISS:          0
cpu0_L1I WRITEBACK ACCESS:          0  HIT:          0  MISS:          0
cpu0_L1I TRANSLATION ACCESS:          0  HIT:          0  MISS:          0
cpu0_L1I PREFETCH  REQUESTED:          0  ISSUED:          0  USEFUL:          0  USELESS:          0
cpu0_L1I AVERAGE MISS LATENCY: 179.444 cycles
cpu0_STLB TOTAL     ACCESS:     108828  HIT:      69715  MISS:      39113
cpu0_STLB LOAD      ACCESS:     102910  HIT:      64873  MISS:      38037
cpu0_STLB RFO       ACCESS:       5918  HIT:       4842  MISS:       1076
cpu0_STLB PREFETCH  ACCESS:          0  HIT:          0  MISS:          0
cpu0_STLB WRITEBACK ACCESS:          0  HIT:          0  MISS:          0
cpu0_STLB TRANSLATION ACCESS:          0  HIT:          0  MISS:          0
cpu0_STLB PREFETCH  REQUESTED:          0  ISSUED:          0  USEFUL:          0  USELESS:          0
cpu0_STLB AVERAGE MISS LATENCY: 12.2367 cycles
cpu0_L1D TOTAL     ACCESS:   12227388  HIT:   10728179  MISS:    1499209
cpu0_L1D LOAD      ACCESS:   10429061  HIT:    9050956  MISS:    1378105
cpu0_L1D RFO       ACCESS:    1761346  HIT:    1640743  MISS:     120603
cpu0_L1D PREFETCH  ACCESS:          0  HIT:          0  MISS:          0
cpu0_L1D WRITEBACK ACCESS:          0  HIT:          0  MISS:          0
cpu0_L1D TRANSLATION ACCESS:      36981  HIT:      36480  MISS:        501
cpu0_L1D PREFETCH  REQUESTED:          0  ISSUED:          0  USEFUL:          0  USELESS:          0
cpu0_L1D AVERAGE MISS LATENCY: 87.8721 cycles
cpu0_L2C TOTAL     ACCESS:    1642893  HIT:     358360  MISS:    1284533
cpu0_L2C LOAD      ACCESS:    1379662  HIT:     204318  MISS:    1175344
cpu0_L2C RFO       ACCESS:     120603  HIT:      11970  MISS:     108633
cpu0_L2C PREFETCH  ACCESS:          0  HIT:          0  MISS:          0
cpu0_L2C WRITEBACK ACCESS:     142127  HIT:     141859  MISS:        268
cpu0_L2C TRANSLATION ACCESS:        501  HIT:        213  MISS:        288
cpu0_L2C PREFETCH  REQUESTED:          0  ISSUED:          0  USEFUL:          0  USELESS:          0
cpu0_L2C AVERAGE MISS LATENCY: 89.886 cycles
LLC TOTAL     ACCESS:    1413634  HIT:     895497  MISS:     518137
LLC LOAD      ACCESS:    1175336  HIT:     727274  MISS:     448062
LLC RFO       ACCESS:     108633  HIT:      71809  MISS:      36824
LLC PREFETCH  ACCESS:          0  HIT:          0  MISS:          0
LLC WRITEBACK ACCESS:     129377  HIT:      96228  MISS:      33149
LLC TRANSLATION ACCESS:        288  HIT:        186  MISS:        102
LLC PREFETCH  REQUESTED:          0  ISSUED:          0  USEFUL:          0  USELESS:          0
LLC AVERAGE MISS LATENCY: 170.785 cycles

DRAM Statistics
 CHANNEL 0
 RQ ROW_BUFFER_HIT:      92215  ROW_BUFFER_MISS:     392425
 DBUS AVG_CONGESTED_CYCLE:    3.81335
 WQ ROW_BUFFER_HIT:      21445  ROW_BUFFER_MISS:      28585  FULL:          0


CPU 0 Branch Prediction Accuracy: 92.5867% MPKI: 6.65069 Average ROB Occupancy at Mispredict: 176.086
Branch type MPKI
BRANCH_DIRECT_JUMP: 0.00112
BRANCH_INDIRECT: 0
BRANCH_CONDITIONAL: 6.64811
BRANCH_DIRECT_CALL: 0.00071
BRANCH_INDIRECT_CALL: 3e-05
BRANCH_RETURN: 0.00072

