
*** ChampSim Multicore Out-of-Order Simulator ***

Warmup Instructions: 10000000
Simulation Instructions: 100000000
Number of CPUs: 1
Off-chip DRAM Size: 4 GiB Channels: 1 Width: 64-bit Data Rate: 3200 MT/s

VirtualMemory physical capacity: 8588881920 num_ppages: 2096895
VirtualMemory page size: 4096 log2_page_size: 12

CPU 0 runs /datasets/cs240c-wi22-a00-public/data/Assignment2/wrf_1228B.trace.xz
CPU 0 Bimodal branch predictor
Basic BTB sets: 1024 ways: 8 indirect buffer size: 4096 RAS size: 64
Initialize Hawkeye state
Initialize SRRIP state
Heartbeat CPU 0 instructions: 10000001 cycles: 3904481 heartbeat IPC: 2.56116 cumulative IPC: 2.56116 (Simulation time: 0 hr 0 min 50 sec) 

Warmup complete CPU 0 instructions: 10000001 cycles: 3904481 (Simulation time: 0 hr 0 min 50 sec) 

Heartbeat CPU 0 instructions: 20000001 cycles: 12156770 heartbeat IPC: 1.21178 cumulative IPC: 1.21178 (Simulation time: 0 hr 1 min 53 sec) 
Heartbeat CPU 0 instructions: 30000002 cycles: 23622527 heartbeat IPC: 0.872162 cumulative IPC: 1.0143 (Simulation time: 0 hr 3 min 14 sec) 
Heartbeat CPU 0 instructions: 40000000 cycles: 37118387 heartbeat IPC: 0.740968 cumulative IPC: 0.903236 (Simulation time: 0 hr 4 min 51 sec) 
Heartbeat CPU 0 instructions: 50000001 cycles: 45366004 heartbeat IPC: 1.21247 cumulative IPC: 0.96475 (Simulation time: 0 hr 6 min 3 sec) 
Heartbeat CPU 0 instructions: 60000000 cycles: 55064552 heartbeat IPC: 1.03108 cumulative IPC: 0.977325 (Simulation time: 0 hr 7 min 25 sec) 
Heartbeat CPU 0 instructions: 70000001 cycles: 66344820 heartbeat IPC: 0.886504 cumulative IPC: 0.960917 (Simulation time: 0 hr 8 min 42 sec) 
Heartbeat CPU 0 instructions: 80000004 cycles: 76054678 heartbeat IPC: 1.02988 cumulative IPC: 0.970198 (Simulation time: 0 hr 9 min 43 sec) 
Heartbeat CPU 0 instructions: 90000001 cycles: 85739673 heartbeat IPC: 1.03252 cumulative IPC: 0.977575 (Simulation time: 0 hr 10 min 44 sec) 
Heartbeat CPU 0 instructions: 100000002 cycles: 95418018 heartbeat IPC: 1.03323 cumulative IPC: 0.983461 (Simulation time: 0 hr 11 min 45 sec) 
Heartbeat CPU 0 instructions: 110000000 cycles: 105088181 heartbeat IPC: 1.03411 cumulative IPC: 0.988301 (Simulation time: 0 hr 13 min 16 sec) 
Finished CPU 0 instructions: 100000004 cycles: 101183701 cumulative IPC: 0.988301 (Simulation time: 0 hr 13 min 16 sec) 

ChampSim completed all CPUs

Region of Interest Statistics

CPU 0 cumulative IPC: 0.988301 instructions: 100000004 cycles: 101183701
cpu0_DTLB TOTAL     ACCESS:   19649440  HIT:   19553203  MISS:      96237
cpu0_DTLB LOAD      ACCESS:   17640392  HIT:   17558463  MISS:      81929
cpu0_DTLB RFO       ACCESS:    2009048  HIT:    1994740  MISS:      14308
cpu0_DTLB PREFETCH  ACCESS:          0  HIT:          0  MISS:          0
cpu0_DTLB WRITEBACK ACCESS:          0  HIT:          0  MISS:          0
cpu0_DTLB TRANSLATION ACCESS:          0  HIT:          0  MISS:          0
cpu0_DTLB PREFETCH  REQUESTED:          0  ISSUED:          0  USEFUL:          0  USELESS:          0
cpu0_DTLB AVERAGE MISS LATENCY: 20.0506 cycles
cpu0_ITLB TOTAL     ACCESS:    4190919  HIT:    4190907  MISS:         12
cpu0_ITLB LOAD      ACCESS:    4190919  HIT:    4190907  MISS:         12
cpu0_ITLB RFO       ACCESS:          0  HIT:          0  MISS:          0
cpu0_ITLB PREFETCH  ACCESS:          0  HIT:          0  MISS:          0
cpu0_ITLB WRITEBACK ACCESS:          0  HIT:          0  MISS:          0
cpu0_ITLB TRANSLATION ACCESS:          0  HIT:          0  MISS:          0
cpu0_ITLB PREFETCH  REQUESTED:          0  ISSUED:          0  USEFUL:          0  USELESS:          0
cpu0_ITLB AVERAGE MISS LATENCY: 208.417 cycles
cpu0_L1I TOTAL     ACCESS:    6669135  HIT:    6668387  MISS:        748
cpu0_L1I LOAD      ACCESS:    6669135  HIT:    6668387  MISS:        748
cpu0_L1I RFO       ACCESS:          0  HIT:          0  MISS:          0
cpu0_L1I PREFETCH  ACCESS:          0  HIT:          0  MISS:          0
cpu0_L1I WRITEBACK ACCESS:          0  HIT:          0  MISS:          0
cpu0_L1I TRANSLATION ACCESS:          0  HIT:          0  MISS:          0
cpu0_L1I PREFETCH  REQUESTED:          0  ISSUED:          0  USEFUL:          0  USELESS:          0
cpu0_L1I AVERAGE MISS LATENCY: 344.182 cycles
cpu0_STLB TOTAL     ACCESS:      96249  HIT:      86695  MISS:       9554
cpu0_STLB LOAD      ACCESS:      81941  HIT:      75033  MISS:       6908
cpu0_STLB RFO       ACCESS:      14308  HIT:      11662  MISS:       2646
cpu0_STLB PREFETCH  ACCESS:          0  HIT:          0  MISS:          0
cpu0_STLB WRITEBACK ACCESS:          0  HIT:          0  MISS:          0
cpu0_STLB TRANSLATION ACCESS:          0  HIT:          0  MISS:          0
cpu0_STLB PREFETCH  REQUESTED:          0  ISSUED:          0  USEFUL:          0  USELESS:          0
cpu0_STLB AVERAGE MISS LATENCY: 111.544 cycles
cpu0_L1D TOTAL     ACCESS:   18912666  HIT:   17554281  MISS:    1358385
cpu0_L1D LOAD      ACCESS:   14859990  HIT:   13760949  MISS:    1099041
cpu0_L1D RFO       ACCESS:    4043131  HIT:    3784574  MISS:     258557
cpu0_L1D PREFETCH  ACCESS:          0  HIT:          0  MISS:          0
cpu0_L1D WRITEBACK ACCESS:          0  HIT:          0  MISS:          0
cpu0_L1D TRANSLATION ACCESS:       9545  HIT:       8758  MISS:        787
cpu0_L1D PREFETCH  REQUESTED:          0  ISSUED:          0  USEFUL:          0  USELESS:          0
cpu0_L1D AVERAGE MISS LATENCY: 203.757 cycles
cpu0_L2C TOTAL     ACCESS:    1836320  HIT:     802883  MISS:    1033437
cpu0_L2C LOAD      ACCESS:    1099758  HIT:     287134  MISS:     812624
cpu0_L2C RFO       ACCESS:     258552  HIT:      39535  MISS:     219017
cpu0_L2C PREFETCH  ACCESS:          0  HIT:          0  MISS:          0
cpu0_L2C WRITEBACK ACCESS:     477223  HIT:     475539  MISS:       1684
cpu0_L2C TRANSLATION ACCESS:        787  HIT:        675  MISS:        112
cpu0_L2C PREFETCH  REQUESTED:          0  ISSUED:          0  USEFUL:          0  USELESS:          0
cpu0_L2C AVERAGE MISS LATENCY: 253.586 cycles
LLC TOTAL     ACCESS:    1463806  HIT:     493311  MISS:     970495
LLC LOAD      ACCESS:     812624  HIT:     183913  MISS:     628711
LLC RFO       ACCESS:     219017  HIT:      47901  MISS:     171116
LLC PREFETCH  ACCESS:          0  HIT:          0  MISS:          0
LLC WRITEBACK ACCESS:     432053  HIT:     261448  MISS:     170605
LLC TRANSLATION ACCESS:        112  HIT:         49  MISS:         63
LLC PREFETCH  REQUESTED:          0  ISSUED:          0  USEFUL:          0  USELESS:          0
LLC AVERAGE MISS LATENCY: 247.703 cycles

DRAM Statistics
 CHANNEL 0
 RQ ROW_BUFFER_HIT:     110668  ROW_BUFFER_MISS:     688842
 DBUS AVG_CONGESTED_CYCLE:    3.92532
 WQ ROW_BUFFER_HIT:      25078  ROW_BUFFER_MISS:     270305  FULL:       3632


CPU 0 Branch Prediction Accuracy: 97.4481% MPKI: 2.04611 Average ROB Occupancy at Mispredict: 260.778
Branch type MPKI
BRANCH_DIRECT_JUMP: 0.00028
BRANCH_INDIRECT: 0
BRANCH_CONDITIONAL: 2.0456
BRANCH_DIRECT_CALL: 0.00011
BRANCH_INDIRECT_CALL: 0
BRANCH_RETURN: 0.00012

