
*** ChampSim Multicore Out-of-Order Simulator ***

Warmup Instructions: 10000000
Simulation Instructions: 100000000
Number of CPUs: 1
Off-chip DRAM Size: 4 GiB Channels: 1 Width: 64-bit Data Rate: 3200 MT/s

VirtualMemory physical capacity: 8588881920 num_ppages: 2096895
VirtualMemory page size: 4096 log2_page_size: 12

CPU 0 runs /datasets/cs240c-wi22-a00-public/data/Assignment2/xalancbmk_99B.trace.xz
CPU 0 Bimodal branch predictor
Basic BTB sets: 1024 ways: 8 indirect buffer size: 4096 RAS size: 64
Initialize Hawkeye state
Initialize SRRIP state
Heartbeat CPU 0 instructions: 10000001 cycles: 3058716 heartbeat IPC: 3.26935 cumulative IPC: 3.26935 (Simulation time: 0 hr 0 min 39 sec) 

Warmup complete CPU 0 instructions: 10000001 cycles: 3058716 (Simulation time: 0 hr 0 min 39 sec) 

Heartbeat CPU 0 instructions: 20000003 cycles: 37305908 heartbeat IPC: 0.291995 cumulative IPC: 0.291995 (Simulation time: 0 hr 1 min 42 sec) 
Heartbeat CPU 0 instructions: 30000000 cycles: 75819546 heartbeat IPC: 0.259648 cumulative IPC: 0.274873 (Simulation time: 0 hr 2 min 53 sec) 
Heartbeat CPU 0 instructions: 40000000 cycles: 112228038 heartbeat IPC: 0.274661 cumulative IPC: 0.274802 (Simulation time: 0 hr 4 min 0 sec) 
Heartbeat CPU 0 instructions: 50000001 cycles: 150617713 heartbeat IPC: 0.260487 cumulative IPC: 0.271078 (Simulation time: 0 hr 5 min 10 sec) 
Heartbeat CPU 0 instructions: 60000002 cycles: 188632914 heartbeat IPC: 0.263053 cumulative IPC: 0.269434 (Simulation time: 0 hr 6 min 18 sec) 
Heartbeat CPU 0 instructions: 70000002 cycles: 225460855 heartbeat IPC: 0.271533 cumulative IPC: 0.269782 (Simulation time: 0 hr 7 min 25 sec) 
Heartbeat CPU 0 instructions: 80000001 cycles: 263659132 heartbeat IPC: 0.261792 cumulative IPC: 0.26861 (Simulation time: 0 hr 8 min 55 sec) 
Heartbeat CPU 0 instructions: 90000000 cycles: 301105632 heartbeat IPC: 0.267048 cumulative IPC: 0.268414 (Simulation time: 0 hr 10 min 50 sec) 
Heartbeat CPU 0 instructions: 100000000 cycles: 338503632 heartbeat IPC: 0.267394 cumulative IPC: 0.2683 (Simulation time: 0 hr 12 min 42 sec) 
Heartbeat CPU 0 instructions: 110000001 cycles: 374305424 heartbeat IPC: 0.279316 cumulative IPC: 0.269363 (Simulation time: 0 hr 14 min 19 sec) 
Finished CPU 0 instructions: 100000000 cycles: 371246708 cumulative IPC: 0.269363 (Simulation time: 0 hr 14 min 19 sec) 

ChampSim completed all CPUs

Region of Interest Statistics

CPU 0 cumulative IPC: 0.269363 instructions: 100000000 cycles: 371246708
cpu0_DTLB TOTAL     ACCESS:   22809355  HIT:   22248701  MISS:     560654
cpu0_DTLB LOAD      ACCESS:   21430211  HIT:   20879145  MISS:     551066
cpu0_DTLB RFO       ACCESS:    1379144  HIT:    1369556  MISS:       9588
cpu0_DTLB PREFETCH  ACCESS:          0  HIT:          0  MISS:          0
cpu0_DTLB WRITEBACK ACCESS:          0  HIT:          0  MISS:          0
cpu0_DTLB TRANSLATION ACCESS:          0  HIT:          0  MISS:          0
cpu0_DTLB PREFETCH  REQUESTED:          0  ISSUED:          0  USEFUL:          0  USELESS:          0
cpu0_DTLB AVERAGE MISS LATENCY: 37.4872 cycles
cpu0_ITLB TOTAL     ACCESS:   13331774  HIT:   13304416  MISS:      27358
cpu0_ITLB LOAD      ACCESS:   13331774  HIT:   13304416  MISS:      27358
cpu0_ITLB RFO       ACCESS:          0  HIT:          0  MISS:          0
cpu0_ITLB PREFETCH  ACCESS:          0  HIT:          0  MISS:          0
cpu0_ITLB WRITEBACK ACCESS:          0  HIT:          0  MISS:          0
cpu0_ITLB TRANSLATION ACCESS:          0  HIT:          0  MISS:          0
cpu0_ITLB PREFETCH  REQUESTED:          0  ISSUED:          0  USEFUL:          0  USELESS:          0
cpu0_ITLB AVERAGE MISS LATENCY: 10.926 cycles
cpu0_L1I TOTAL     ACCESS:     670752  HIT:     563677  MISS:     107075
cpu0_L1I LOAD      ACCESS:     670752  HIT:     563677  MISS:     107075
cpu0_L1I RFO       ACCESS:          0  HIT:          0  MISS:          0
cpu0_L1I PREFETCH  ACCESS:          0  HIT:          0  MISS:          0
cpu0_L1I WRITEBACK ACCESS:          0  HIT:          0  MISS:          0
cpu0_L1I TRANSLATION ACCESS:          0  HIT:          0  MISS:          0
cpu0_L1I PREFETCH  REQUESTED:          0  ISSUED:          0  USEFUL:          0  USELESS:          0
cpu0_L1I AVERAGE MISS LATENCY: 27.5838 cycles
cpu0_STLB TOTAL     ACCESS:     588012  HIT:     172999  MISS:     415013
cpu0_STLB LOAD      ACCESS:     578424  HIT:     164982  MISS:     413442
cpu0_STLB RFO       ACCESS:       9588  HIT:       8017  MISS:       1571
cpu0_STLB PREFETCH  ACCESS:          0  HIT:          0  MISS:          0
cpu0_STLB WRITEBACK ACCESS:          0  HIT:          0  MISS:          0
cpu0_STLB TRANSLATION ACCESS:          0  HIT:          0  MISS:          0
cpu0_STLB PREFETCH  REQUESTED:          0  ISSUED:          0  USEFUL:          0  USELESS:          0
cpu0_STLB AVERAGE MISS LATENCY: 38.5358 cycles
cpu0_L1D TOTAL     ACCESS:   17696779  HIT:   14551635  MISS:    3145144
cpu0_L1D LOAD      ACCESS:   15456490  HIT:   12329250  MISS:    3127240
cpu0_L1D RFO       ACCESS:    1870228  HIT:    1858276  MISS:      11952
cpu0_L1D PREFETCH  ACCESS:          0  HIT:          0  MISS:          0
cpu0_L1D WRITEBACK ACCESS:          0  HIT:          0  MISS:          0
cpu0_L1D TRANSLATION ACCESS:     370061  HIT:     364109  MISS:       5952
cpu0_L1D PREFETCH  REQUESTED:          0  ISSUED:          0  USEFUL:          0  USELESS:          0
cpu0_L1D AVERAGE MISS LATENCY: 156.798 cycles
cpu0_L2C TOTAL     ACCESS:    3280026  HIT:     136196  MISS:    3143830
cpu0_L2C LOAD      ACCESS:    3234305  HIT:     101481  MISS:    3132824
cpu0_L2C RFO       ACCESS:      11948  HIT:       2660  MISS:       9288
cpu0_L2C PREFETCH  ACCESS:          0  HIT:          0  MISS:          0
cpu0_L2C WRITEBACK ACCESS:      27821  HIT:      27430  MISS:        391
cpu0_L2C TRANSLATION ACCESS:       5952  HIT:       4625  MISS:       1327
cpu0_L2C PREFETCH  REQUESTED:          0  ISSUED:          0  USEFUL:          0  USELESS:          0
cpu0_L2C AVERAGE MISS LATENCY: 146.27 cycles
LLC TOTAL     ACCESS:    3163846  HIT:     632141  MISS:    2531705
LLC LOAD      ACCESS:    3132824  HIT:     610025  MISS:    2522799
LLC RFO       ACCESS:       9287  HIT:       4624  MISS:       4663
LLC PREFETCH  ACCESS:          0  HIT:          0  MISS:          0
LLC WRITEBACK ACCESS:      20408  HIT:      16829  MISS:       3579
LLC TRANSLATION ACCESS:       1327  HIT:        663  MISS:        664
LLC PREFETCH  REQUESTED:          0  ISSUED:          0  USEFUL:          0  USELESS:          0
LLC AVERAGE MISS LATENCY: 155.561 cycles

DRAM Statistics
 CHANNEL 0
 RQ ROW_BUFFER_HIT:     649906  ROW_BUFFER_MISS:    1878220
 DBUS AVG_CONGESTED_CYCLE:    3.91594
 WQ ROW_BUFFER_HIT:       3073  ROW_BUFFER_MISS:       3025  FULL:          0


CPU 0 Branch Prediction Accuracy: 90.7444% MPKI: 27.9345 Average ROB Occupancy at Mispredict: 19.3273
Branch type MPKI
BRANCH_DIRECT_JUMP: 0.00034
BRANCH_INDIRECT: 0.0087
BRANCH_CONDITIONAL: 27.8577
BRANCH_DIRECT_CALL: 0.00024
BRANCH_INDIRECT_CALL: 0.02508
BRANCH_RETURN: 0.04245

