
*** ChampSim Multicore Out-of-Order Simulator ***

Warmup Instructions: 10000000
Simulation Instructions: 100000000
Number of CPUs: 1
Off-chip DRAM Size: 4 GiB Channels: 1 Width: 64-bit Data Rate: 3200 MT/s

VirtualMemory physical capacity: 8588881920 num_ppages: 2096895
VirtualMemory page size: 4096 log2_page_size: 12

CPU 0 runs /datasets/cs240c-wi22-a00-public/data/Assignment2/hmmer_397B.trace.xz
CPU 0 Bimodal branch predictor
Basic BTB sets: 1024 ways: 8 indirect buffer size: 4096 RAS size: 64
5th iteration
No hysteresis, common rrpv
Initialize Hawkeye state
Initialize SRRIP state
Heartbeat CPU 0 instructions: 10000000 cycles: 3996187 heartbeat IPC: 2.50239 cumulative IPC: 2.50239 (Simulation time: 0 hr 0 min 35 sec) 

Warmup complete CPU 0 instructions: 10000005 cycles: 3996190 (Simulation time: 0 hr 0 min 35 sec) 

Heartbeat CPU 0 instructions: 20000002 cycles: 9226580 heartbeat IPC: 1.9119 cumulative IPC: 1.9119 (Simulation time: 0 hr 1 min 24 sec) 
Heartbeat CPU 0 instructions: 30000003 cycles: 14147686 heartbeat IPC: 2.03206 cumulative IPC: 1.97015 (Simulation time: 0 hr 2 min 13 sec) 
Heartbeat CPU 0 instructions: 40000003 cycles: 19028129 heartbeat IPC: 2.04899 cumulative IPC: 1.99575 (Simulation time: 0 hr 3 min 3 sec) 
Heartbeat CPU 0 instructions: 50000001 cycles: 24041290 heartbeat IPC: 1.99475 cumulative IPC: 1.9955 (Simulation time: 0 hr 3 min 52 sec) 
Heartbeat CPU 0 instructions: 60000002 cycles: 28996006 heartbeat IPC: 2.01828 cumulative IPC: 2.00001 (Simulation time: 0 hr 4 min 41 sec) 
Heartbeat CPU 0 instructions: 70000004 cycles: 33487860 heartbeat IPC: 2.22625 cumulative IPC: 2.03447 (Simulation time: 0 hr 5 min 29 sec) 
Heartbeat CPU 0 instructions: 80000000 cycles: 37834708 heartbeat IPC: 2.30052 cumulative IPC: 2.06865 (Simulation time: 0 hr 6 min 16 sec) 
Heartbeat CPU 0 instructions: 90000004 cycles: 42196241 heartbeat IPC: 2.29277 cumulative IPC: 2.09424 (Simulation time: 0 hr 7 min 4 sec) 
Heartbeat CPU 0 instructions: 100000003 cycles: 46532083 heartbeat IPC: 2.30636 cumulative IPC: 2.11586 (Simulation time: 0 hr 7 min 51 sec) 
Heartbeat CPU 0 instructions: 110000001 cycles: 50879758 heartbeat IPC: 2.30008 cumulative IPC: 2.13294 (Simulation time: 0 hr 8 min 38 sec) 
Finished CPU 0 instructions: 100000001 cycles: 46883569 cumulative IPC: 2.13294 (Simulation time: 0 hr 8 min 38 sec) 

ChampSim completed all CPUs

Region of Interest Statistics

CPU 0 cumulative IPC: 2.13294 instructions: 100000001 cycles: 46883569
cpu0_DTLB TOTAL     ACCESS:   40466532  HIT:   40458579  MISS:       7953
cpu0_DTLB LOAD      ACCESS:   32303217  HIT:   32300345  MISS:       2872
cpu0_DTLB RFO       ACCESS:    8163315  HIT:    8158234  MISS:       5081
cpu0_DTLB PREFETCH  ACCESS:          0  HIT:          0  MISS:          0
cpu0_DTLB WRITEBACK ACCESS:          0  HIT:          0  MISS:          0
cpu0_DTLB TRANSLATION ACCESS:          0  HIT:          0  MISS:          0
cpu0_DTLB PREFETCH  REQUESTED:          0  ISSUED:          0  USEFUL:          0  USELESS:          0
cpu0_DTLB AVERAGE MISS LATENCY: 25.0235 cycles
cpu0_ITLB TOTAL     ACCESS:     800575  HIT:     800468  MISS:        107
cpu0_ITLB LOAD      ACCESS:     800575  HIT:     800468  MISS:        107
cpu0_ITLB RFO       ACCESS:          0  HIT:          0  MISS:          0
cpu0_ITLB PREFETCH  ACCESS:          0  HIT:          0  MISS:          0
cpu0_ITLB WRITEBACK ACCESS:          0  HIT:          0  MISS:          0
cpu0_ITLB TRANSLATION ACCESS:          0  HIT:          0  MISS:          0
cpu0_ITLB PREFETCH  REQUESTED:          0  ISSUED:          0  USEFUL:          0  USELESS:          0
cpu0_ITLB AVERAGE MISS LATENCY: 79.2617 cycles
cpu0_L1I TOTAL     ACCESS:      64571  HIT:      64235  MISS:        336
cpu0_L1I LOAD      ACCESS:      64571  HIT:      64235  MISS:        336
cpu0_L1I RFO       ACCESS:          0  HIT:          0  MISS:          0
cpu0_L1I PREFETCH  ACCESS:          0  HIT:          0  MISS:          0
cpu0_L1I WRITEBACK ACCESS:          0  HIT:          0  MISS:          0
cpu0_L1I TRANSLATION ACCESS:          0  HIT:          0  MISS:          0
cpu0_L1I PREFETCH  REQUESTED:          0  ISSUED:          0  USEFUL:          0  USELESS:          0
cpu0_L1I AVERAGE MISS LATENCY: 313.905 cycles
cpu0_STLB TOTAL     ACCESS:       8060  HIT:       7280  MISS:        780
cpu0_STLB LOAD      ACCESS:       2979  HIT:       2812  MISS:        167
cpu0_STLB RFO       ACCESS:       5081  HIT:       4468  MISS:        613
cpu0_STLB PREFETCH  ACCESS:          0  HIT:          0  MISS:          0
cpu0_STLB WRITEBACK ACCESS:          0  HIT:          0  MISS:          0
cpu0_STLB TRANSLATION ACCESS:          0  HIT:          0  MISS:          0
cpu0_STLB PREFETCH  REQUESTED:          0  ISSUED:          0  USEFUL:          0  USELESS:          0
cpu0_STLB AVERAGE MISS LATENCY: 172.926 cycles
cpu0_L1D TOTAL     ACCESS:   32707217  HIT:   32241488  MISS:     465729
cpu0_L1D LOAD      ACCESS:   28659433  HIT:   28502874  MISS:     156559
cpu0_L1D RFO       ACCESS:    4047013  HIT:    3738028  MISS:     308985
cpu0_L1D PREFETCH  ACCESS:          0  HIT:          0  MISS:          0
cpu0_L1D WRITEBACK ACCESS:          0  HIT:          0  MISS:          0
cpu0_L1D TRANSLATION ACCESS:        771  HIT:        586  MISS:        185
cpu0_L1D PREFETCH  REQUESTED:          0  ISSUED:          0  USEFUL:          0  USELESS:          0
cpu0_L1D AVERAGE MISS LATENCY: 337.51 cycles
cpu0_L2C TOTAL     ACCESS:     772738  HIT:     485547  MISS:     287191
cpu0_L2C LOAD      ACCESS:     156895  HIT:     142211  MISS:      14684
cpu0_L2C RFO       ACCESS:     308985  HIT:      36532  MISS:     272453
cpu0_L2C PREFETCH  ACCESS:          0  HIT:          0  MISS:          0
cpu0_L2C WRITEBACK ACCESS:     306673  HIT:     306636  MISS:         37
cpu0_L2C TRANSLATION ACCESS:        185  HIT:        168  MISS:         17
cpu0_L2C PREFETCH  REQUESTED:          0  ISSUED:          0  USEFUL:          0  USELESS:          0
cpu0_L2C AVERAGE MISS LATENCY: 529.831 cycles
LLC TOTAL     ACCESS:     557895  HIT:     339249  MISS:     218646
LLC LOAD      ACCESS:      14684  HIT:      11508  MISS:       3176
LLC RFO       ACCESS:     272306  HIT:     138537  MISS:     133769
LLC PREFETCH  ACCESS:          0  HIT:          0  MISS:          0
LLC WRITEBACK ACCESS:     270888  HIT:     189192  MISS:      81696
LLC TRANSLATION ACCESS:         17  HIT:         12  MISS:          5
LLC PREFETCH  REQUESTED:          0  ISSUED:          0  USEFUL:          0  USELESS:          0
LLC AVERAGE MISS LATENCY: 668.365 cycles

DRAM Statistics
 CHANNEL 0
 RQ ROW_BUFFER_HIT:       1795  ROW_BUFFER_MISS:     135154
 DBUS AVG_CONGESTED_CYCLE:    3.99358
 WQ ROW_BUFFER_HIT:       8538  ROW_BUFFER_MISS:     131130  FULL:       2636


CPU 0 Branch Prediction Accuracy: 98.9257% MPKI: 0.41399 Average ROB Occupancy at Mispredict: 250.033
Branch type MPKI
BRANCH_DIRECT_JUMP: 0.00081
BRANCH_INDIRECT: 0.00176
BRANCH_CONDITIONAL: 0.40978
BRANCH_DIRECT_CALL: 0.00081
BRANCH_INDIRECT_CALL: 2e-05
BRANCH_RETURN: 0.00081

