
*** ChampSim Multicore Out-of-Order Simulator ***

Warmup Instructions: 10000000
Simulation Instructions: 100000000
Number of CPUs: 1
Off-chip DRAM Size: 4 GiB Channels: 1 Width: 64-bit Data Rate: 3200 MT/s

VirtualMemory physical capacity: 8588881920 num_ppages: 2096895
VirtualMemory page size: 4096 log2_page_size: 12

CPU 0 runs /datasets/cs240c-wi22-a00-public/data/Assignment2/wrf_1228B.trace.xz
CPU 0 Bimodal branch predictor
Basic BTB sets: 1024 ways: 8 indirect buffer size: 4096 RAS size: 64
5th iteration
No hysteresis, common rrpv
Initialize Hawkeye state
Initialize SRRIP state
Heartbeat CPU 0 instructions: 10000001 cycles: 3904464 heartbeat IPC: 2.56117 cumulative IPC: 2.56117 (Simulation time: 0 hr 0 min 35 sec) 

Warmup complete CPU 0 instructions: 10000001 cycles: 3904464 (Simulation time: 0 hr 0 min 35 sec) 

Heartbeat CPU 0 instructions: 20000001 cycles: 12467850 heartbeat IPC: 1.16776 cumulative IPC: 1.16776 (Simulation time: 0 hr 1 min 22 sec) 
Heartbeat CPU 0 instructions: 30000003 cycles: 24467543 heartbeat IPC: 0.833355 cumulative IPC: 0.972617 (Simulation time: 0 hr 2 min 23 sec) 
Heartbeat CPU 0 instructions: 40000001 cycles: 37001863 heartbeat IPC: 0.797809 cumulative IPC: 0.906416 (Simulation time: 0 hr 3 min 29 sec) 
Heartbeat CPU 0 instructions: 50000001 cycles: 44607105 heartbeat IPC: 1.31488 cumulative IPC: 0.982737 (Simulation time: 0 hr 4 min 13 sec) 
Heartbeat CPU 0 instructions: 60000003 cycles: 55383007 heartbeat IPC: 0.927997 cumulative IPC: 0.971278 (Simulation time: 0 hr 5 min 10 sec) 
Heartbeat CPU 0 instructions: 70000001 cycles: 66869500 heartbeat IPC: 0.870588 cumulative IPC: 0.95291 (Simulation time: 0 hr 6 min 3 sec) 
Heartbeat CPU 0 instructions: 80000004 cycles: 76579493 heartbeat IPC: 1.02987 cumulative IPC: 0.963192 (Simulation time: 0 hr 6 min 44 sec) 
Heartbeat CPU 0 instructions: 90000001 cycles: 86264488 heartbeat IPC: 1.03252 cumulative IPC: 0.971345 (Simulation time: 0 hr 7 min 51 sec) 
Heartbeat CPU 0 instructions: 100000002 cycles: 95942828 heartbeat IPC: 1.03324 cumulative IPC: 0.977853 (Simulation time: 0 hr 9 min 8 sec) 
Heartbeat CPU 0 instructions: 110000000 cycles: 105612991 heartbeat IPC: 1.03411 cumulative IPC: 0.983202 (Simulation time: 0 hr 10 min 20 sec) 
Finished CPU 0 instructions: 100000004 cycles: 101708528 cumulative IPC: 0.983202 (Simulation time: 0 hr 10 min 20 sec) 

ChampSim completed all CPUs

Region of Interest Statistics

CPU 0 cumulative IPC: 0.983202 instructions: 100000004 cycles: 101708528
cpu0_DTLB TOTAL     ACCESS:   19657967  HIT:   19561729  MISS:      96238
cpu0_DTLB LOAD      ACCESS:   17642382  HIT:   17560452  MISS:      81930
cpu0_DTLB RFO       ACCESS:    2015585  HIT:    2001277  MISS:      14308
cpu0_DTLB PREFETCH  ACCESS:          0  HIT:          0  MISS:          0
cpu0_DTLB WRITEBACK ACCESS:          0  HIT:          0  MISS:          0
cpu0_DTLB TRANSLATION ACCESS:          0  HIT:          0  MISS:          0
cpu0_DTLB PREFETCH  REQUESTED:          0  ISSUED:          0  USEFUL:          0  USELESS:          0
cpu0_DTLB AVERAGE MISS LATENCY: 20.0086 cycles
cpu0_ITLB TOTAL     ACCESS:    4203117  HIT:    4203105  MISS:         12
cpu0_ITLB LOAD      ACCESS:    4203117  HIT:    4203105  MISS:         12
cpu0_ITLB RFO       ACCESS:          0  HIT:          0  MISS:          0
cpu0_ITLB PREFETCH  ACCESS:          0  HIT:          0  MISS:          0
cpu0_ITLB WRITEBACK ACCESS:          0  HIT:          0  MISS:          0
cpu0_ITLB TRANSLATION ACCESS:          0  HIT:          0  MISS:          0
cpu0_ITLB PREFETCH  REQUESTED:          0  ISSUED:          0  USEFUL:          0  USELESS:          0
cpu0_ITLB AVERAGE MISS LATENCY: 208.417 cycles
cpu0_L1I TOTAL     ACCESS:    6678045  HIT:    6677297  MISS:        748
cpu0_L1I LOAD      ACCESS:    6678045  HIT:    6677297  MISS:        748
cpu0_L1I RFO       ACCESS:          0  HIT:          0  MISS:          0
cpu0_L1I PREFETCH  ACCESS:          0  HIT:          0  MISS:          0
cpu0_L1I WRITEBACK ACCESS:          0  HIT:          0  MISS:          0
cpu0_L1I TRANSLATION ACCESS:          0  HIT:          0  MISS:          0
cpu0_L1I PREFETCH  REQUESTED:          0  ISSUED:          0  USEFUL:          0  USELESS:          0
cpu0_L1I AVERAGE MISS LATENCY: 295.199 cycles
cpu0_STLB TOTAL     ACCESS:      96250  HIT:      86696  MISS:       9554
cpu0_STLB LOAD      ACCESS:      81942  HIT:      75034  MISS:       6908
cpu0_STLB RFO       ACCESS:      14308  HIT:      11662  MISS:       2646
cpu0_STLB PREFETCH  ACCESS:          0  HIT:          0  MISS:          0
cpu0_STLB WRITEBACK ACCESS:          0  HIT:          0  MISS:          0
cpu0_STLB TRANSLATION ACCESS:          0  HIT:          0  MISS:          0
cpu0_STLB PREFETCH  REQUESTED:          0  ISSUED:          0  USEFUL:          0  USELESS:          0
cpu0_STLB AVERAGE MISS LATENCY: 111.121 cycles
cpu0_L1D TOTAL     ACCESS:   18855400  HIT:   17496990  MISS:    1358410
cpu0_L1D LOAD      ACCESS:   14807135  HIT:   13708056  MISS:    1099079
cpu0_L1D RFO       ACCESS:    4038718  HIT:    3780173  MISS:     258545
cpu0_L1D PREFETCH  ACCESS:          0  HIT:          0  MISS:          0
cpu0_L1D WRITEBACK ACCESS:          0  HIT:          0  MISS:          0
cpu0_L1D TRANSLATION ACCESS:       9547  HIT:       8761  MISS:        786
cpu0_L1D PREFETCH  REQUESTED:          0  ISSUED:          0  USEFUL:          0  USELESS:          0
cpu0_L1D AVERAGE MISS LATENCY: 214.138 cycles
cpu0_L2C TOTAL     ACCESS:    1836357  HIT:     802905  MISS:    1033452
cpu0_L2C LOAD      ACCESS:    1099797  HIT:     287175  MISS:     812622
cpu0_L2C RFO       ACCESS:     258542  HIT:      39524  MISS:     219018
cpu0_L2C PREFETCH  ACCESS:          0  HIT:          0  MISS:          0
cpu0_L2C WRITEBACK ACCESS:     477232  HIT:     475533  MISS:       1699
cpu0_L2C TRANSLATION ACCESS:        786  HIT:        673  MISS:        113
cpu0_L2C PREFETCH  REQUESTED:          0  ISSUED:          0  USEFUL:          0  USELESS:          0
cpu0_L2C AVERAGE MISS LATENCY: 267.195 cycles
LLC TOTAL     ACCESS:    1463818  HIT:     473601  MISS:     990217
LLC LOAD      ACCESS:     812622  HIT:     194903  MISS:     617719
LLC RFO       ACCESS:     219018  HIT:      30163  MISS:     188855
LLC PREFETCH  ACCESS:          0  HIT:          0  MISS:          0
LLC WRITEBACK ACCESS:     432065  HIT:     248481  MISS:     183584
LLC TRANSLATION ACCESS:        113  HIT:         54  MISS:         59
LLC PREFETCH  REQUESTED:          0  ISSUED:          0  USEFUL:          0  USELESS:          0
LLC AVERAGE MISS LATENCY: 256.978 cycles

DRAM Statistics
 CHANNEL 0
 RQ ROW_BUFFER_HIT:      90246  ROW_BUFFER_MISS:     716177
 DBUS AVG_CONGESTED_CYCLE:    3.93202
 WQ ROW_BUFFER_HIT:      26377  ROW_BUFFER_MISS:     271972  FULL:       6237


CPU 0 Branch Prediction Accuracy: 97.4481% MPKI: 2.04611 Average ROB Occupancy at Mispredict: 259.329
Branch type MPKI
BRANCH_DIRECT_JUMP: 0.00028
BRANCH_INDIRECT: 0
BRANCH_CONDITIONAL: 2.0456
BRANCH_DIRECT_CALL: 0.00011
BRANCH_INDIRECT_CALL: 0
BRANCH_RETURN: 0.00012

