
*** ChampSim Multicore Out-of-Order Simulator ***

Warmup Instructions: 10000000
Simulation Instructions: 100000000
Number of CPUs: 1
Off-chip DRAM Size: 4 GiB Channels: 1 Width: 64-bit Data Rate: 3200 MT/s

VirtualMemory physical capacity: 8588881920 num_ppages: 2096895
VirtualMemory page size: 4096 log2_page_size: 12

CPU 0 runs /datasets/cs240c-wi22-a00-public/data/Assignment2/bzip2_259B.trace.xz
CPU 0 Bimodal branch predictor
Basic BTB sets: 1024 ways: 8 indirect buffer size: 4096 RAS size: 64
Initialize Hawkeye state
Initialize SRRIP state
Heartbeat CPU 0 instructions: 10000002 cycles: 2535454 heartbeat IPC: 3.94407 cumulative IPC: 3.94407 (Simulation time: 0 hr 0 min 55 sec) 

Warmup complete CPU 0 instructions: 10000002 cycles: 2535454 (Simulation time: 0 hr 0 min 55 sec) 

Heartbeat CPU 0 instructions: 20000003 cycles: 9054376 heartbeat IPC: 1.534 cumulative IPC: 1.534 (Simulation time: 0 hr 2 min 54 sec) 
Heartbeat CPU 0 instructions: 30000002 cycles: 14612076 heartbeat IPC: 1.79931 cumulative IPC: 1.65609 (Simulation time: 0 hr 4 min 35 sec) 
Heartbeat CPU 0 instructions: 40000003 cycles: 21371050 heartbeat IPC: 1.47951 cumulative IPC: 1.59273 (Simulation time: 0 hr 6 min 0 sec) 
Heartbeat CPU 0 instructions: 50000003 cycles: 29574942 heartbeat IPC: 1.21893 cumulative IPC: 1.47932 (Simulation time: 0 hr 6 min 56 sec) 
Heartbeat CPU 0 instructions: 60000001 cycles: 37438577 heartbeat IPC: 1.27168 cumulative IPC: 1.43254 (Simulation time: 0 hr 7 min 53 sec) 
Heartbeat CPU 0 instructions: 70000004 cycles: 43854958 heartbeat IPC: 1.55851 cumulative IPC: 1.4521 (Simulation time: 0 hr 9 min 35 sec) 
Heartbeat CPU 0 instructions: 80000004 cycles: 50971191 heartbeat IPC: 1.40524 cumulative IPC: 1.44521 (Simulation time: 0 hr 11 min 15 sec) 
Heartbeat CPU 0 instructions: 90000001 cycles: 57273762 heartbeat IPC: 1.58665 cumulative IPC: 1.4615 (Simulation time: 0 hr 12 min 29 sec) 
Heartbeat CPU 0 instructions: 100000000 cycles: 65671694 heartbeat IPC: 1.19077 cumulative IPC: 1.42549 (Simulation time: 0 hr 13 min 7 sec) 
Heartbeat CPU 0 instructions: 110000000 cycles: 73646880 heartbeat IPC: 1.25389 cumulative IPC: 1.40624 (Simulation time: 0 hr 13 min 41 sec) 
Finished CPU 0 instructions: 100000003 cycles: 71111431 cumulative IPC: 1.40624 (Simulation time: 0 hr 13 min 41 sec) 

ChampSim completed all CPUs

Region of Interest Statistics

CPU 0 cumulative IPC: 1.40624 instructions: 100000003 cycles: 71111431
cpu0_DTLB TOTAL     ACCESS:   18627938  HIT:   17967186  MISS:     660752
cpu0_DTLB LOAD      ACCESS:    9569132  HIT:    8912302  MISS:     656830
cpu0_DTLB RFO       ACCESS:    9058806  HIT:    9054884  MISS:       3922
cpu0_DTLB PREFETCH  ACCESS:          0  HIT:          0  MISS:          0
cpu0_DTLB WRITEBACK ACCESS:          0  HIT:          0  MISS:          0
cpu0_DTLB TRANSLATION ACCESS:          0  HIT:          0  MISS:          0
cpu0_DTLB PREFETCH  REQUESTED:          0  ISSUED:          0  USEFUL:          0  USELESS:          0
cpu0_DTLB AVERAGE MISS LATENCY: 9.26356 cycles
cpu0_ITLB TOTAL     ACCESS:    6780997  HIT:    6780994  MISS:          3
cpu0_ITLB LOAD      ACCESS:    6780997  HIT:    6780994  MISS:          3
cpu0_ITLB RFO       ACCESS:          0  HIT:          0  MISS:          0
cpu0_ITLB PREFETCH  ACCESS:          0  HIT:          0  MISS:          0
cpu0_ITLB WRITEBACK ACCESS:          0  HIT:          0  MISS:          0
cpu0_ITLB TRANSLATION ACCESS:          0  HIT:          0  MISS:          0
cpu0_ITLB PREFETCH  REQUESTED:          0  ISSUED:          0  USEFUL:          0  USELESS:          0
cpu0_ITLB AVERAGE MISS LATENCY: 395.333 cycles
cpu0_L1I TOTAL     ACCESS:      58695  HIT:      58556  MISS:        139
cpu0_L1I LOAD      ACCESS:      58695  HIT:      58556  MISS:        139
cpu0_L1I RFO       ACCESS:          0  HIT:          0  MISS:          0
cpu0_L1I PREFETCH  ACCESS:          0  HIT:          0  MISS:          0
cpu0_L1I WRITEBACK ACCESS:          0  HIT:          0  MISS:          0
cpu0_L1I TRANSLATION ACCESS:          0  HIT:          0  MISS:          0
cpu0_L1I PREFETCH  REQUESTED:          0  ISSUED:          0  USEFUL:          0  USELESS:          0
cpu0_L1I AVERAGE MISS LATENCY: 199.712 cycles
cpu0_STLB TOTAL     ACCESS:     660755  HIT:     659935  MISS:        820
cpu0_STLB LOAD      ACCESS:     656833  HIT:     656560  MISS:        273
cpu0_STLB RFO       ACCESS:       3922  HIT:       3375  MISS:        547
cpu0_STLB PREFETCH  ACCESS:          0  HIT:          0  MISS:          0
cpu0_STLB WRITEBACK ACCESS:          0  HIT:          0  MISS:          0
cpu0_STLB TRANSLATION ACCESS:          0  HIT:          0  MISS:          0
cpu0_STLB PREFETCH  REQUESTED:          0  ISSUED:          0  USEFUL:          0  USELESS:          0
cpu0_STLB AVERAGE MISS LATENCY: 213.723 cycles
cpu0_L1D TOTAL     ACCESS:   20315964  HIT:   19310384  MISS:    1005580
cpu0_L1D LOAD      ACCESS:   10364511  HIT:    9478133  MISS:     886378
cpu0_L1D RFO       ACCESS:    9950636  HIT:    9831753  MISS:     118883
cpu0_L1D PREFETCH  ACCESS:          0  HIT:          0  MISS:          0
cpu0_L1D WRITEBACK ACCESS:          0  HIT:          0  MISS:          0
cpu0_L1D TRANSLATION ACCESS:        817  HIT:        498  MISS:        319
cpu0_L1D PREFETCH  REQUESTED:          0  ISSUED:          0  USEFUL:          0  USELESS:          0
cpu0_L1D AVERAGE MISS LATENCY: 88.1816 cycles
cpu0_L2C TOTAL     ACCESS:    1222715  HIT:     525102  MISS:     697613
cpu0_L2C LOAD      ACCESS:     886515  HIT:     288929  MISS:     597586
cpu0_L2C RFO       ACCESS:     118881  HIT:      18908  MISS:      99973
cpu0_L2C PREFETCH  ACCESS:          0  HIT:          0  MISS:          0
cpu0_L2C WRITEBACK ACCESS:     217000  HIT:     216964  MISS:         36
cpu0_L2C TRANSLATION ACCESS:        319  HIT:        301  MISS:         18
cpu0_L2C PREFETCH  REQUESTED:          0  ISSUED:          0  USEFUL:          0  USELESS:          0
cpu0_L2C AVERAGE MISS LATENCY: 111.287 cycles
LLC TOTAL     ACCESS:     886576  HIT:     585537  MISS:     301039
LLC LOAD      ACCESS:     597585  HIT:     396342  MISS:     201243
LLC RFO       ACCESS:      99973  HIT:      49036  MISS:      50937
LLC PREFETCH  ACCESS:          0  HIT:          0  MISS:          0
LLC WRITEBACK ACCESS:     189000  HIT:     140158  MISS:      48842
LLC TRANSLATION ACCESS:         18  HIT:          1  MISS:         17
LLC PREFETCH  REQUESTED:          0  ISSUED:          0  USEFUL:          0  USELESS:          0
LLC AVERAGE MISS LATENCY: 209.225 cycles

DRAM Statistics
 CHANNEL 0
 RQ ROW_BUFFER_HIT:      28156  ROW_BUFFER_MISS:     223818
 DBUS AVG_CONGESTED_CYCLE:    3.95701
 WQ ROW_BUFFER_HIT:      16460  ROW_BUFFER_MISS:     123087  FULL:         51


CPU 0 Branch Prediction Accuracy: 93.3658% MPKI: 11.2167 Average ROB Occupancy at Mispredict: 31.7393
Branch type MPKI
BRANCH_DIRECT_JUMP: 0.0006
BRANCH_INDIRECT: 0.01713
BRANCH_CONDITIONAL: 11.1989
BRANCH_DIRECT_CALL: 5e-05
BRANCH_INDIRECT_CALL: 0
BRANCH_RETURN: 6e-05

