
*** ChampSim Multicore Out-of-Order Simulator ***

Warmup Instructions: 10000000
Simulation Instructions: 100000000
Number of CPUs: 1
Off-chip DRAM Size: 4 GiB Channels: 1 Width: 64-bit Data Rate: 3200 MT/s

VirtualMemory physical capacity: 8588881920 num_ppages: 2096895
VirtualMemory page size: 4096 log2_page_size: 12

CPU 0 runs /datasets/cs240c-wi22-a00-public/data/Assignment2/cactusADM_1039B.trace.xz
CPU 0 Bimodal branch predictor
Basic BTB sets: 1024 ways: 8 indirect buffer size: 4096 RAS size: 64
Initialize Hawkeye state
Initialize SRRIP state
Heartbeat CPU 0 instructions: 10000004 cycles: 3647107 heartbeat IPC: 2.7419 cumulative IPC: 2.7419 (Simulation time: 0 hr 1 min 2 sec) 

Warmup complete CPU 0 instructions: 10000004 cycles: 3647107 (Simulation time: 0 hr 1 min 2 sec) 

Heartbeat CPU 0 instructions: 20000004 cycles: 13505238 heartbeat IPC: 1.01439 cumulative IPC: 1.01439 (Simulation time: 0 hr 2 min 41 sec) 
Heartbeat CPU 0 instructions: 30000000 cycles: 22709907 heartbeat IPC: 1.0864 cumulative IPC: 1.04916 (Simulation time: 0 hr 4 min 15 sec) 
Heartbeat CPU 0 instructions: 40000000 cycles: 31506137 heartbeat IPC: 1.13685 cumulative IPC: 1.07685 (Simulation time: 0 hr 5 min 40 sec) 
Heartbeat CPU 0 instructions: 50000004 cycles: 40265235 heartbeat IPC: 1.14167 cumulative IPC: 1.09236 (Simulation time: 0 hr 6 min 59 sec) 
Heartbeat CPU 0 instructions: 60000004 cycles: 46448083 heartbeat IPC: 1.61738 cumulative IPC: 1.1682 (Simulation time: 0 hr 8 min 14 sec) 
Heartbeat CPU 0 instructions: 70000002 cycles: 54839838 heartbeat IPC: 1.19165 cumulative IPC: 1.17204 (Simulation time: 0 hr 9 min 37 sec) 
Heartbeat CPU 0 instructions: 80000004 cycles: 63312024 heartbeat IPC: 1.18033 cumulative IPC: 1.17322 (Simulation time: 0 hr 10 min 58 sec) 
Heartbeat CPU 0 instructions: 90000004 cycles: 71881412 heartbeat IPC: 1.16694 cumulative IPC: 1.17243 (Simulation time: 0 hr 12 min 25 sec) 
Heartbeat CPU 0 instructions: 100000000 cycles: 77971663 heartbeat IPC: 1.64197 cumulative IPC: 1.21091 (Simulation time: 0 hr 13 min 37 sec) 
Heartbeat CPU 0 instructions: 110000003 cycles: 86301515 heartbeat IPC: 1.2005 cumulative IPC: 1.20986 (Simulation time: 0 hr 15 min 7 sec) 
Finished CPU 0 instructions: 100000004 cycles: 82654409 cumulative IPC: 1.20986 (Simulation time: 0 hr 15 min 7 sec) 

ChampSim completed all CPUs

Region of Interest Statistics

CPU 0 cumulative IPC: 1.20986 instructions: 100000004 cycles: 82654409
cpu0_DTLB TOTAL     ACCESS:   22843920  HIT:   20794877  MISS:    2049043
cpu0_DTLB LOAD      ACCESS:   18925323  HIT:   17492338  MISS:    1432985
cpu0_DTLB RFO       ACCESS:    3918597  HIT:    3302539  MISS:     616058
cpu0_DTLB PREFETCH  ACCESS:          0  HIT:          0  MISS:          0
cpu0_DTLB WRITEBACK ACCESS:          0  HIT:          0  MISS:          0
cpu0_DTLB TRANSLATION ACCESS:          0  HIT:          0  MISS:          0
cpu0_DTLB PREFETCH  REQUESTED:          0  ISSUED:          0  USEFUL:          0  USELESS:          0
cpu0_DTLB AVERAGE MISS LATENCY: 15.8253 cycles
cpu0_ITLB TOTAL     ACCESS:    1451264  HIT:    1451264  MISS:          0
cpu0_ITLB LOAD      ACCESS:    1451264  HIT:    1451264  MISS:          0
cpu0_ITLB RFO       ACCESS:          0  HIT:          0  MISS:          0
cpu0_ITLB PREFETCH  ACCESS:          0  HIT:          0  MISS:          0
cpu0_ITLB WRITEBACK ACCESS:          0  HIT:          0  MISS:          0
cpu0_ITLB TRANSLATION ACCESS:          0  HIT:          0  MISS:          0
cpu0_ITLB PREFETCH  REQUESTED:          0  ISSUED:          0  USEFUL:          0  USELESS:          0
cpu0_ITLB AVERAGE MISS LATENCY: -nan cycles
cpu0_L1I TOTAL     ACCESS:    8118458  HIT:    8118455  MISS:          3
cpu0_L1I LOAD      ACCESS:    8118458  HIT:    8118455  MISS:          3
cpu0_L1I RFO       ACCESS:          0  HIT:          0  MISS:          0
cpu0_L1I PREFETCH  ACCESS:          0  HIT:          0  MISS:          0
cpu0_L1I WRITEBACK ACCESS:          0  HIT:          0  MISS:          0
cpu0_L1I TRANSLATION ACCESS:          0  HIT:          0  MISS:          0
cpu0_L1I PREFETCH  REQUESTED:          0  ISSUED:          0  USEFUL:          0  USELESS:          0
cpu0_L1I AVERAGE MISS LATENCY: 876.333 cycles
cpu0_STLB TOTAL     ACCESS:    2049043  HIT:    1127955  MISS:     921088
cpu0_STLB LOAD      ACCESS:    1432985  HIT:     834619  MISS:     598366
cpu0_STLB RFO       ACCESS:     616058  HIT:     293336  MISS:     322722
cpu0_STLB PREFETCH  ACCESS:          0  HIT:          0  MISS:          0
cpu0_STLB WRITEBACK ACCESS:          0  HIT:          0  MISS:          0
cpu0_STLB TRANSLATION ACCESS:          0  HIT:          0  MISS:          0
cpu0_STLB PREFETCH  REQUESTED:          0  ISSUED:          0  USEFUL:          0  USELESS:          0
cpu0_STLB AVERAGE MISS LATENCY: 15.0253 cycles
cpu0_L1D TOTAL     ACCESS:   37599283  HIT:   36275536  MISS:    1323747
cpu0_L1D LOAD      ACCESS:   25694044  HIT:   24641633  MISS:    1052411
cpu0_L1D RFO       ACCESS:   10984997  HIT:   10719626  MISS:     265371
cpu0_L1D PREFETCH  ACCESS:          0  HIT:          0  MISS:          0
cpu0_L1D WRITEBACK ACCESS:          0  HIT:          0  MISS:          0
cpu0_L1D TRANSLATION ACCESS:     920242  HIT:     914277  MISS:       5965
cpu0_L1D PREFETCH  REQUESTED:          0  ISSUED:          0  USEFUL:          0  USELESS:          0
cpu0_L1D AVERAGE MISS LATENCY: 280.281 cycles
cpu0_L2C TOTAL     ACCESS:    1593015  HIT:     694195  MISS:     898820
cpu0_L2C LOAD      ACCESS:    1052413  HIT:     419490  MISS:     632923
cpu0_L2C RFO       ACCESS:     265371  HIT:          0  MISS:     265371
cpu0_L2C PREFETCH  ACCESS:          0  HIT:          0  MISS:          0
cpu0_L2C WRITEBACK ACCESS:     269266  HIT:     269055  MISS:        211
cpu0_L2C TRANSLATION ACCESS:       5965  HIT:       5650  MISS:        315
cpu0_L2C PREFETCH  REQUESTED:          0  ISSUED:          0  USEFUL:          0  USELESS:          0
cpu0_L2C AVERAGE MISS LATENCY: 396.567 cycles
LLC TOTAL     ACCESS:    1165771  HIT:     347040  MISS:     818731
LLC LOAD      ACCESS:     632923  HIT:     155104  MISS:     477819
LLC RFO       ACCESS:     265371  HIT:      83008  MISS:     182363
LLC PREFETCH  ACCESS:          0  HIT:          0  MISS:          0
LLC WRITEBACK ACCESS:     267162  HIT:     108892  MISS:     158270
LLC TRANSLATION ACCESS:        315  HIT:         36  MISS:        279
LLC PREFETCH  REQUESTED:          0  ISSUED:          0  USEFUL:          0  USELESS:          0
LLC AVERAGE MISS LATENCY: 412.309 cycles

DRAM Statistics
 CHANNEL 0
 RQ ROW_BUFFER_HIT:       6500  ROW_BUFFER_MISS:     653936
 DBUS AVG_CONGESTED_CYCLE:    3.97613
 WQ ROW_BUFFER_HIT:      21126  ROW_BUFFER_MISS:     217678  FULL:        234


CPU 0 Branch Prediction Accuracy: 97.7479% MPKI: 0.04701 Average ROB Occupancy at Mispredict: 283.798
Branch type MPKI
BRANCH_DIRECT_JUMP: 0
BRANCH_INDIRECT: 0
BRANCH_CONDITIONAL: 0.04701
BRANCH_DIRECT_CALL: 0
BRANCH_INDIRECT_CALL: 0
BRANCH_RETURN: 0

