
*** ChampSim Multicore Out-of-Order Simulator ***

Warmup Instructions: 10000000
Simulation Instructions: 100000000
Number of CPUs: 1
Off-chip DRAM Size: 4 GiB Channels: 1 Width: 64-bit Data Rate: 3200 MT/s

VirtualMemory physical capacity: 8588881920 num_ppages: 2096895
VirtualMemory page size: 4096 log2_page_size: 12

CPU 0 runs /datasets/cs240c-wi22-a00-public/data/Assignment2/hmmer_397B.trace.xz
CPU 0 Bimodal branch predictor
Basic BTB sets: 1024 ways: 8 indirect buffer size: 4096 RAS size: 64
Initialize Hawkeye state
Initialize SRRIP state
Heartbeat CPU 0 instructions: 10000000 cycles: 3996187 heartbeat IPC: 2.50239 cumulative IPC: 2.50239 (Simulation time: 0 hr 0 min 56 sec) 

Warmup complete CPU 0 instructions: 10000005 cycles: 3996190 (Simulation time: 0 hr 0 min 56 sec) 

Heartbeat CPU 0 instructions: 20000002 cycles: 9273644 heartbeat IPC: 1.89485 cumulative IPC: 1.89485 (Simulation time: 0 hr 2 min 14 sec) 
Heartbeat CPU 0 instructions: 30000003 cycles: 14325697 heartbeat IPC: 1.97939 cumulative IPC: 1.9362 (Simulation time: 0 hr 3 min 33 sec) 
Heartbeat CPU 0 instructions: 40000003 cycles: 19047627 heartbeat IPC: 2.11778 cumulative IPC: 1.99317 (Simulation time: 0 hr 4 min 52 sec) 
Heartbeat CPU 0 instructions: 50000001 cycles: 24222810 heartbeat IPC: 1.9323 cumulative IPC: 1.97759 (Simulation time: 0 hr 6 min 9 sec) 
Heartbeat CPU 0 instructions: 60000002 cycles: 28763794 heartbeat IPC: 2.20217 cumulative IPC: 2.01877 (Simulation time: 0 hr 7 min 23 sec) 
Heartbeat CPU 0 instructions: 70000004 cycles: 33415066 heartbeat IPC: 2.14995 cumulative IPC: 2.03951 (Simulation time: 0 hr 8 min 38 sec) 
Heartbeat CPU 0 instructions: 80000000 cycles: 37764588 heartbeat IPC: 2.2991 cumulative IPC: 2.07294 (Simulation time: 0 hr 9 min 52 sec) 
Heartbeat CPU 0 instructions: 90000004 cycles: 42125488 heartbeat IPC: 2.29311 cumulative IPC: 2.09812 (Simulation time: 0 hr 11 min 2 sec) 
Heartbeat CPU 0 instructions: 100000003 cycles: 46461153 heartbeat IPC: 2.30645 cumulative IPC: 2.11939 (Simulation time: 0 hr 12 min 10 sec) 
Heartbeat CPU 0 instructions: 110000001 cycles: 50808672 heartbeat IPC: 2.30016 cumulative IPC: 2.13618 (Simulation time: 0 hr 13 min 19 sec) 
Finished CPU 0 instructions: 100000001 cycles: 46812483 cumulative IPC: 2.13618 (Simulation time: 0 hr 13 min 19 sec) 

ChampSim completed all CPUs

Region of Interest Statistics

CPU 0 cumulative IPC: 2.13618 instructions: 100000001 cycles: 46812483
cpu0_DTLB TOTAL     ACCESS:   40462921  HIT:   40454975  MISS:       7946
cpu0_DTLB LOAD      ACCESS:   32300156  HIT:   32297291  MISS:       2865
cpu0_DTLB RFO       ACCESS:    8162765  HIT:    8157684  MISS:       5081
cpu0_DTLB PREFETCH  ACCESS:          0  HIT:          0  MISS:          0
cpu0_DTLB WRITEBACK ACCESS:          0  HIT:          0  MISS:          0
cpu0_DTLB TRANSLATION ACCESS:          0  HIT:          0  MISS:          0
cpu0_DTLB PREFETCH  REQUESTED:          0  ISSUED:          0  USEFUL:          0  USELESS:          0
cpu0_DTLB AVERAGE MISS LATENCY: 24.9606 cycles
cpu0_ITLB TOTAL     ACCESS:     797984  HIT:     797877  MISS:        107
cpu0_ITLB LOAD      ACCESS:     797984  HIT:     797877  MISS:        107
cpu0_ITLB RFO       ACCESS:          0  HIT:          0  MISS:          0
cpu0_ITLB PREFETCH  ACCESS:          0  HIT:          0  MISS:          0
cpu0_ITLB WRITEBACK ACCESS:          0  HIT:          0  MISS:          0
cpu0_ITLB TRANSLATION ACCESS:          0  HIT:          0  MISS:          0
cpu0_ITLB PREFETCH  REQUESTED:          0  ISSUED:          0  USEFUL:          0  USELESS:          0
cpu0_ITLB AVERAGE MISS LATENCY: 81.7664 cycles
cpu0_L1I TOTAL     ACCESS:      64684  HIT:      64348  MISS:        336
cpu0_L1I LOAD      ACCESS:      64684  HIT:      64348  MISS:        336
cpu0_L1I RFO       ACCESS:          0  HIT:          0  MISS:          0
cpu0_L1I PREFETCH  ACCESS:          0  HIT:          0  MISS:          0
cpu0_L1I WRITEBACK ACCESS:          0  HIT:          0  MISS:          0
cpu0_L1I TRANSLATION ACCESS:          0  HIT:          0  MISS:          0
cpu0_L1I PREFETCH  REQUESTED:          0  ISSUED:          0  USEFUL:          0  USELESS:          0
cpu0_L1I AVERAGE MISS LATENCY: 313.265 cycles
cpu0_STLB TOTAL     ACCESS:       8053  HIT:       7273  MISS:        780
cpu0_STLB LOAD      ACCESS:       2972  HIT:       2805  MISS:        167
cpu0_STLB RFO       ACCESS:       5081  HIT:       4468  MISS:        613
cpu0_STLB PREFETCH  ACCESS:          0  HIT:          0  MISS:          0
cpu0_STLB WRITEBACK ACCESS:          0  HIT:          0  MISS:          0
cpu0_STLB TRANSLATION ACCESS:          0  HIT:          0  MISS:          0
cpu0_STLB PREFETCH  REQUESTED:          0  ISSUED:          0  USEFUL:          0  USELESS:          0
cpu0_STLB AVERAGE MISS LATENCY: 172.486 cycles
cpu0_L1D TOTAL     ACCESS:   32858049  HIT:   32392314  MISS:     465735
cpu0_L1D LOAD      ACCESS:   28660635  HIT:   28504066  MISS:     156569
cpu0_L1D RFO       ACCESS:    4196643  HIT:    3887658  MISS:     308985
cpu0_L1D PREFETCH  ACCESS:          0  HIT:          0  MISS:          0
cpu0_L1D WRITEBACK ACCESS:          0  HIT:          0  MISS:          0
cpu0_L1D TRANSLATION ACCESS:        771  HIT:        590  MISS:        181
cpu0_L1D PREFETCH  REQUESTED:          0  ISSUED:          0  USEFUL:          0  USELESS:          0
cpu0_L1D AVERAGE MISS LATENCY: 312.564 cycles
cpu0_L2C TOTAL     ACCESS:     773016  HIT:     485817  MISS:     287199
cpu0_L2C LOAD      ACCESS:     156905  HIT:     142212  MISS:      14693
cpu0_L2C RFO       ACCESS:     308985  HIT:      36533  MISS:     272452
cpu0_L2C PREFETCH  ACCESS:          0  HIT:          0  MISS:          0
cpu0_L2C WRITEBACK ACCESS:     306945  HIT:     306908  MISS:         37
cpu0_L2C TRANSLATION ACCESS:        181  HIT:        164  MISS:         17
cpu0_L2C PREFETCH  REQUESTED:          0  ISSUED:          0  USEFUL:          0  USELESS:          0
cpu0_L2C AVERAGE MISS LATENCY: 489.369 cycles
LLC TOTAL     ACCESS:     558177  HIT:     345969  MISS:     212208
LLC LOAD      ACCESS:      14693  HIT:      11315  MISS:       3378
LLC RFO       ACCESS:     272308  HIT:     146668  MISS:     125640
LLC PREFETCH  ACCESS:          0  HIT:          0  MISS:          0
LLC WRITEBACK ACCESS:     271159  HIT:     187975  MISS:      83184
LLC TRANSLATION ACCESS:         17  HIT:         11  MISS:          6
LLC PREFETCH  REQUESTED:          0  ISSUED:          0  USEFUL:          0  USELESS:          0
LLC AVERAGE MISS LATENCY: 633.901 cycles

DRAM Statistics
 CHANNEL 0
 RQ ROW_BUFFER_HIT:       1696  ROW_BUFFER_MISS:     127322
 DBUS AVG_CONGESTED_CYCLE:    3.99328
 WQ ROW_BUFFER_HIT:       8529  ROW_BUFFER_MISS:     117748  FULL:       7396


CPU 0 Branch Prediction Accuracy: 98.9257% MPKI: 0.41399 Average ROB Occupancy at Mispredict: 249.886
Branch type MPKI
BRANCH_DIRECT_JUMP: 0.00081
BRANCH_INDIRECT: 0.00176
BRANCH_CONDITIONAL: 0.40978
BRANCH_DIRECT_CALL: 0.00081
BRANCH_INDIRECT_CALL: 2e-05
BRANCH_RETURN: 0.00081

