
*** ChampSim Multicore Out-of-Order Simulator ***

Warmup Instructions: 10000000
Simulation Instructions: 100000000
Number of CPUs: 1
Off-chip DRAM Size: 4 GiB Channels: 1 Width: 64-bit Data Rate: 3200 MT/s

VirtualMemory physical capacity: 8588881920 num_ppages: 2096895
VirtualMemory page size: 4096 log2_page_size: 12

CPU 0 runs /datasets/cs240c-wi22-a00-public/data/Assignment2/hmmer_7B.trace.xz
CPU 0 Bimodal branch predictor
Basic BTB sets: 1024 ways: 8 indirect buffer size: 4096 RAS size: 64
Initialize Hawkeye state
Initialize SRRIP state
Heartbeat CPU 0 instructions: 10000004 cycles: 3986065 heartbeat IPC: 2.50874 cumulative IPC: 2.50874 (Simulation time: 0 hr 0 min 56 sec) 

Warmup complete CPU 0 instructions: 10000004 cycles: 3986065 (Simulation time: 0 hr 0 min 56 sec) 

Heartbeat CPU 0 instructions: 20000004 cycles: 9212937 heartbeat IPC: 1.91319 cumulative IPC: 1.91319 (Simulation time: 0 hr 2 min 19 sec) 
Heartbeat CPU 0 instructions: 30000001 cycles: 13936327 heartbeat IPC: 2.11712 cumulative IPC: 2.01 (Simulation time: 0 hr 3 min 38 sec) 
Heartbeat CPU 0 instructions: 40000001 cycles: 18473024 heartbeat IPC: 2.20425 cumulative IPC: 2.07083 (Simulation time: 0 hr 4 min 57 sec) 
Heartbeat CPU 0 instructions: 50000000 cycles: 23793474 heartbeat IPC: 1.87954 cumulative IPC: 2.01945 (Simulation time: 0 hr 6 min 24 sec) 
Heartbeat CPU 0 instructions: 60000000 cycles: 28122204 heartbeat IPC: 2.31015 cumulative IPC: 2.07158 (Simulation time: 0 hr 7 min 44 sec) 
Heartbeat CPU 0 instructions: 70000003 cycles: 32443227 heartbeat IPC: 2.31427 cumulative IPC: 2.10843 (Simulation time: 0 hr 9 min 5 sec) 
Heartbeat CPU 0 instructions: 80000001 cycles: 36752942 heartbeat IPC: 2.32034 cumulative IPC: 2.1363 (Simulation time: 0 hr 10 min 20 sec) 
Heartbeat CPU 0 instructions: 90000004 cycles: 41072549 heartbeat IPC: 2.31503 cumulative IPC: 2.15712 (Simulation time: 0 hr 11 min 36 sec) 
Heartbeat CPU 0 instructions: 100000002 cycles: 45391612 heartbeat IPC: 2.31532 cumulative IPC: 2.17362 (Simulation time: 0 hr 12 min 48 sec) 
Heartbeat CPU 0 instructions: 110000001 cycles: 49720730 heartbeat IPC: 2.30994 cumulative IPC: 2.18653 (Simulation time: 0 hr 13 min 57 sec) 
Finished CPU 0 instructions: 100000002 cycles: 45734666 cumulative IPC: 2.18653 (Simulation time: 0 hr 13 min 57 sec) 

ChampSim completed all CPUs

Region of Interest Statistics

CPU 0 cumulative IPC: 2.18653 instructions: 100000002 cycles: 45734666
cpu0_DTLB TOTAL     ACCESS:   40543463  HIT:   40529306  MISS:      14157
cpu0_DTLB LOAD      ACCESS:   32388518  HIT:   32380801  MISS:       7717
cpu0_DTLB RFO       ACCESS:    8154945  HIT:    8148505  MISS:       6440
cpu0_DTLB PREFETCH  ACCESS:          0  HIT:          0  MISS:          0
cpu0_DTLB WRITEBACK ACCESS:          0  HIT:          0  MISS:          0
cpu0_DTLB TRANSLATION ACCESS:          0  HIT:          0  MISS:          0
cpu0_DTLB PREFETCH  REQUESTED:          0  ISSUED:          0  USEFUL:          0  USELESS:          0
cpu0_DTLB AVERAGE MISS LATENCY: 14.998 cycles
cpu0_ITLB TOTAL     ACCESS:     799240  HIT:     799168  MISS:         72
cpu0_ITLB LOAD      ACCESS:     799240  HIT:     799168  MISS:         72
cpu0_ITLB RFO       ACCESS:          0  HIT:          0  MISS:          0
cpu0_ITLB PREFETCH  ACCESS:          0  HIT:          0  MISS:          0
cpu0_ITLB WRITEBACK ACCESS:          0  HIT:          0  MISS:          0
cpu0_ITLB TRANSLATION ACCESS:          0  HIT:          0  MISS:          0
cpu0_ITLB PREFETCH  REQUESTED:          0  ISSUED:          0  USEFUL:          0  USELESS:          0
cpu0_ITLB AVERAGE MISS LATENCY: 21 cycles
cpu0_L1I TOTAL     ACCESS:      62193  HIT:      62088  MISS:        105
cpu0_L1I LOAD      ACCESS:      62193  HIT:      62088  MISS:        105
cpu0_L1I RFO       ACCESS:          0  HIT:          0  MISS:          0
cpu0_L1I PREFETCH  ACCESS:          0  HIT:          0  MISS:          0
cpu0_L1I WRITEBACK ACCESS:          0  HIT:          0  MISS:          0
cpu0_L1I TRANSLATION ACCESS:          0  HIT:          0  MISS:          0
cpu0_L1I PREFETCH  REQUESTED:          0  ISSUED:          0  USEFUL:          0  USELESS:          0
cpu0_L1I AVERAGE MISS LATENCY: 111.981 cycles
cpu0_STLB TOTAL     ACCESS:      14229  HIT:      13774  MISS:        455
cpu0_STLB LOAD      ACCESS:       7789  HIT:       7781  MISS:          8
cpu0_STLB RFO       ACCESS:       6440  HIT:       5993  MISS:        447
cpu0_STLB PREFETCH  ACCESS:          0  HIT:          0  MISS:          0
cpu0_STLB WRITEBACK ACCESS:          0  HIT:          0  MISS:          0
cpu0_STLB TRANSLATION ACCESS:          0  HIT:          0  MISS:          0
cpu0_STLB PREFETCH  REQUESTED:          0  ISSUED:          0  USEFUL:          0  USELESS:          0
cpu0_STLB AVERAGE MISS LATENCY: 188.323 cycles
cpu0_L1D TOTAL     ACCESS:   33512106  HIT:   33041965  MISS:     470141
cpu0_L1D LOAD      ACCESS:   28672766  HIT:   28511356  MISS:     161410
cpu0_L1D RFO       ACCESS:    4838886  HIT:    4530178  MISS:     308708
cpu0_L1D PREFETCH  ACCESS:          0  HIT:          0  MISS:          0
cpu0_L1D WRITEBACK ACCESS:          0  HIT:          0  MISS:          0
cpu0_L1D TRANSLATION ACCESS:        454  HIT:        431  MISS:         23
cpu0_L1D PREFETCH  REQUESTED:          0  ISSUED:          0  USEFUL:          0  USELESS:          0
cpu0_L1D AVERAGE MISS LATENCY: 236.927 cycles
cpu0_L2C TOTAL     ACCESS:     777417  HIT:     472493  MISS:     304924
cpu0_L2C LOAD      ACCESS:     161515  HIT:     149280  MISS:      12235
cpu0_L2C RFO       ACCESS:     308708  HIT:      16074  MISS:     292634
cpu0_L2C PREFETCH  ACCESS:          0  HIT:          0  MISS:          0
cpu0_L2C WRITEBACK ACCESS:     307171  HIT:     307124  MISS:         47
cpu0_L2C TRANSLATION ACCESS:         23  HIT:         15  MISS:          8
cpu0_L2C PREFETCH  REQUESTED:          0  ISSUED:          0  USEFUL:          0  USELESS:          0
cpu0_L2C AVERAGE MISS LATENCY: 348.363 cycles
LLC TOTAL     ACCESS:     596566  HIT:     454073  MISS:     142493
LLC LOAD      ACCESS:      12234  HIT:      10764  MISS:       1470
LLC RFO       ACCESS:     292633  HIT:     212608  MISS:      80025
LLC PREFETCH  ACCESS:          0  HIT:          0  MISS:          0
LLC WRITEBACK ACCESS:     291691  HIT:     230696  MISS:      60995
LLC TRANSLATION ACCESS:          8  HIT:          5  MISS:          3
LLC PREFETCH  REQUESTED:          0  ISSUED:          0  USEFUL:          0  USELESS:          0
LLC AVERAGE MISS LATENCY: 700.432 cycles

DRAM Statistics
 CHANNEL 0
 RQ ROW_BUFFER_HIT:        754  ROW_BUFFER_MISS:      80744
 DBUS AVG_CONGESTED_CYCLE:    3.99453
 WQ ROW_BUFFER_HIT:       4134  ROW_BUFFER_MISS:      73944  FULL:      12510


CPU 0 Branch Prediction Accuracy: 98.9368% MPKI: 0.40856 Average ROB Occupancy at Mispredict: 252.393
Branch type MPKI
BRANCH_DIRECT_JUMP: 0.00016
BRANCH_INDIRECT: 0.00157
BRANCH_CONDITIONAL: 0.40659
BRANCH_DIRECT_CALL: 9e-05
BRANCH_INDIRECT_CALL: 3e-05
BRANCH_RETURN: 0.00012

