
*** ChampSim Multicore Out-of-Order Simulator ***

Warmup Instructions: 10000000
Simulation Instructions: 100000000
Number of CPUs: 1
Off-chip DRAM Size: 4 GiB Channels: 1 Width: 64-bit Data Rate: 3200 MT/s

VirtualMemory physical capacity: 8588881920 num_ppages: 2096895
VirtualMemory page size: 4096 log2_page_size: 12

CPU 0 runs /datasets/cs240c-wi22-a00-public/data/Assignment2/milc_409B.trace.xz
CPU 0 Bimodal branch predictor
Basic BTB sets: 1024 ways: 8 indirect buffer size: 4096 RAS size: 64
Initialize Hawkeye state
Initialize SRRIP state
Heartbeat CPU 0 instructions: 10000000 cycles: 3019988 heartbeat IPC: 3.31127 cumulative IPC: 3.31127 (Simulation time: 0 hr 0 min 44 sec) 

Warmup complete CPU 0 instructions: 10000004 cycles: 3019989 (Simulation time: 0 hr 0 min 44 sec) 

Heartbeat CPU 0 instructions: 20000002 cycles: 19564841 heartbeat IPC: 0.604418 cumulative IPC: 0.604418 (Simulation time: 0 hr 2 min 37 sec) 
Heartbeat CPU 0 instructions: 30000001 cycles: 35934949 heartbeat IPC: 0.610869 cumulative IPC: 0.607626 (Simulation time: 0 hr 4 min 24 sec) 
Heartbeat CPU 0 instructions: 40000004 cycles: 52332428 heartbeat IPC: 0.60985 cumulative IPC: 0.608366 (Simulation time: 0 hr 6 min 13 sec) 
Heartbeat CPU 0 instructions: 50000000 cycles: 68755934 heartbeat IPC: 0.608883 cumulative IPC: 0.608495 (Simulation time: 0 hr 8 min 5 sec) 
Heartbeat CPU 0 instructions: 60000004 cycles: 90490153 heartbeat IPC: 0.460104 cumulative IPC: 0.571624 (Simulation time: 0 hr 10 min 40 sec) 
Heartbeat CPU 0 instructions: 70000003 cycles: 106295014 heartbeat IPC: 0.632717 cumulative IPC: 0.580973 (Simulation time: 0 hr 12 min 21 sec) 
Heartbeat CPU 0 instructions: 80000002 cycles: 122358985 heartbeat IPC: 0.622511 cumulative IPC: 0.586564 (Simulation time: 0 hr 14 min 4 sec) 
Heartbeat CPU 0 instructions: 90000001 cycles: 138315094 heartbeat IPC: 0.626719 cumulative IPC: 0.5913 (Simulation time: 0 hr 15 min 46 sec) 
Heartbeat CPU 0 instructions: 100000001 cycles: 154256192 heartbeat IPC: 0.627309 cumulative IPC: 0.595096 (Simulation time: 0 hr 17 min 28 sec) 
Heartbeat CPU 0 instructions: 110000003 cycles: 175015288 heartbeat IPC: 0.481717 cumulative IPC: 0.581411 (Simulation time: 0 hr 20 min 37 sec) 
Finished CPU 0 instructions: 100000004 cycles: 171995300 cumulative IPC: 0.581411 (Simulation time: 0 hr 20 min 37 sec) 

ChampSim completed all CPUs

Region of Interest Statistics

CPU 0 cumulative IPC: 0.581411 instructions: 100000004 cycles: 171995300
cpu0_DTLB TOTAL     ACCESS:   14826046  HIT:   14650880  MISS:     175166
cpu0_DTLB LOAD      ACCESS:    7380205  HIT:    7207180  MISS:     173025
cpu0_DTLB RFO       ACCESS:    7445841  HIT:    7443700  MISS:       2141
cpu0_DTLB PREFETCH  ACCESS:          0  HIT:          0  MISS:          0
cpu0_DTLB WRITEBACK ACCESS:          0  HIT:          0  MISS:          0
cpu0_DTLB TRANSLATION ACCESS:          0  HIT:          0  MISS:          0
cpu0_DTLB PREFETCH  REQUESTED:          0  ISSUED:          0  USEFUL:          0  USELESS:          0
cpu0_DTLB AVERAGE MISS LATENCY: 105.452 cycles
cpu0_ITLB TOTAL     ACCESS:    2821108  HIT:    2821104  MISS:          4
cpu0_ITLB LOAD      ACCESS:    2821108  HIT:    2821104  MISS:          4
cpu0_ITLB RFO       ACCESS:          0  HIT:          0  MISS:          0
cpu0_ITLB PREFETCH  ACCESS:          0  HIT:          0  MISS:          0
cpu0_ITLB WRITEBACK ACCESS:          0  HIT:          0  MISS:          0
cpu0_ITLB TRANSLATION ACCESS:          0  HIT:          0  MISS:          0
cpu0_ITLB PREFETCH  REQUESTED:          0  ISSUED:          0  USEFUL:          0  USELESS:          0
cpu0_ITLB AVERAGE MISS LATENCY: 267.5 cycles
cpu0_L1I TOTAL     ACCESS:    7046574  HIT:    7046523  MISS:         51
cpu0_L1I LOAD      ACCESS:    7046574  HIT:    7046523  MISS:         51
cpu0_L1I RFO       ACCESS:          0  HIT:          0  MISS:          0
cpu0_L1I PREFETCH  ACCESS:          0  HIT:          0  MISS:          0
cpu0_L1I WRITEBACK ACCESS:          0  HIT:          0  MISS:          0
cpu0_L1I TRANSLATION ACCESS:          0  HIT:          0  MISS:          0
cpu0_L1I PREFETCH  REQUESTED:          0  ISSUED:          0  USEFUL:          0  USELESS:          0
cpu0_L1I AVERAGE MISS LATENCY: 192.51 cycles
cpu0_STLB TOTAL     ACCESS:     175170  HIT:          0  MISS:     175170
cpu0_STLB LOAD      ACCESS:     173029  HIT:          0  MISS:     173029
cpu0_STLB RFO       ACCESS:       2141  HIT:          0  MISS:       2141
cpu0_STLB PREFETCH  ACCESS:          0  HIT:          0  MISS:          0
cpu0_STLB WRITEBACK ACCESS:          0  HIT:          0  MISS:          0
cpu0_STLB TRANSLATION ACCESS:          0  HIT:          0  MISS:          0
cpu0_STLB PREFETCH  REQUESTED:          0  ISSUED:          0  USEFUL:          0  USELESS:          0
cpu0_STLB AVERAGE MISS LATENCY: 96.4557 cycles
cpu0_L1D TOTAL     ACCESS:   28468879  HIT:   26651391  MISS:    1817488
cpu0_L1D LOAD      ACCESS:    6439126  HIT:    4758536  MISS:    1680590
cpu0_L1D RFO       ACCESS:   21854586  HIT:   21717739  MISS:     136847
cpu0_L1D PREFETCH  ACCESS:          0  HIT:          0  MISS:          0
cpu0_L1D WRITEBACK ACCESS:          0  HIT:          0  MISS:          0
cpu0_L1D TRANSLATION ACCESS:     175167  HIT:     175116  MISS:         51
cpu0_L1D PREFETCH  REQUESTED:          0  ISSUED:          0  USEFUL:          0  USELESS:          0
cpu0_L1D AVERAGE MISS LATENCY: 384.571 cycles
cpu0_L2C TOTAL     ACCESS:    2676936  HIT:     859383  MISS:    1817553
cpu0_L2C LOAD      ACCESS:    1680641  HIT:          0  MISS:    1680641
cpu0_L2C RFO       ACCESS:     136847  HIT:          0  MISS:     136847
cpu0_L2C PREFETCH  ACCESS:          0  HIT:          0  MISS:          0
cpu0_L2C WRITEBACK ACCESS:     859397  HIT:     859383  MISS:         14
cpu0_L2C TRANSLATION ACCESS:         51  HIT:          0  MISS:         51
cpu0_L2C PREFETCH  REQUESTED:          0  ISSUED:          0  USEFUL:          0  USELESS:          0
cpu0_L2C AVERAGE MISS LATENCY: 373.515 cycles
LLC TOTAL     ACCESS:    2673600  HIT:      57486  MISS:    2616114
LLC LOAD      ACCESS:    1680641  HIT:      14106  MISS:    1666535
LLC RFO       ACCESS:     136847  HIT:       7001  MISS:     129846
LLC PREFETCH  ACCESS:          0  HIT:          0  MISS:          0
LLC WRITEBACK ACCESS:     856061  HIT:      36377  MISS:     819684
LLC TRANSLATION ACCESS:         51  HIT:          2  MISS:         49
LLC PREFETCH  REQUESTED:          0  ISSUED:          0  USEFUL:          0  USELESS:          0
LLC AVERAGE MISS LATENCY: 244.911 cycles

DRAM Statistics
 CHANNEL 0
 RQ ROW_BUFFER_HIT:     243265  ROW_BUFFER_MISS:    1553163
 DBUS AVG_CONGESTED_CYCLE:    3.96975
 WQ ROW_BUFFER_HIT:      48719  ROW_BUFFER_MISS:     789847  FULL:          0


CPU 0 Branch Prediction Accuracy: 99.9987% MPKI: 0.00058 Average ROB Occupancy at Mispredict: 57.0517
Branch type MPKI
BRANCH_DIRECT_JUMP: 0.0001
BRANCH_INDIRECT: 0
BRANCH_CONDITIONAL: 0.00033
BRANCH_DIRECT_CALL: 8e-05
BRANCH_INDIRECT_CALL: 0
BRANCH_RETURN: 7e-05

