
*** ChampSim Multicore Out-of-Order Simulator ***

Warmup Instructions: 10000000
Simulation Instructions: 100000000
Number of CPUs: 1
Off-chip DRAM Size: 4 GiB Channels: 1 Width: 64-bit Data Rate: 3200 MT/s

VirtualMemory physical capacity: 8588881920 num_ppages: 2096895
VirtualMemory page size: 4096 log2_page_size: 12

CPU 0 runs /datasets/cs240c-wi22-a00-public/data/Assignment2/omnetpp_4B.trace.xz
CPU 0 Bimodal branch predictor
Basic BTB sets: 1024 ways: 8 indirect buffer size: 4096 RAS size: 64
Initialize Hawkeye state
Initialize SRRIP state
Heartbeat CPU 0 instructions: 10000002 cycles: 2526519 heartbeat IPC: 3.95802 cumulative IPC: 3.95802 (Simulation time: 0 hr 0 min 26 sec) 

Warmup complete CPU 0 instructions: 10000002 cycles: 2526519 (Simulation time: 0 hr 0 min 26 sec) 

Heartbeat CPU 0 instructions: 20000000 cycles: 9546866 heartbeat IPC: 1.42443 cumulative IPC: 1.42443 (Simulation time: 0 hr 1 min 3 sec) 
Heartbeat CPU 0 instructions: 30000001 cycles: 17366965 heartbeat IPC: 1.27876 cumulative IPC: 1.34767 (Simulation time: 0 hr 1 min 48 sec) 
Heartbeat CPU 0 instructions: 40000002 cycles: 25102550 heartbeat IPC: 1.29273 cumulative IPC: 1.32884 (Simulation time: 0 hr 2 min 34 sec) 
Heartbeat CPU 0 instructions: 50000000 cycles: 32497582 heartbeat IPC: 1.35226 cumulative IPC: 1.33462 (Simulation time: 0 hr 3 min 16 sec) 
Heartbeat CPU 0 instructions: 60000000 cycles: 40343050 heartbeat IPC: 1.27462 cumulative IPC: 1.32217 (Simulation time: 0 hr 4 min 1 sec) 
Heartbeat CPU 0 instructions: 70000000 cycles: 47761613 heartbeat IPC: 1.34797 cumulative IPC: 1.3264 (Simulation time: 0 hr 4 min 42 sec) 
Heartbeat CPU 0 instructions: 80000000 cycles: 55412743 heartbeat IPC: 1.307 cumulative IPC: 1.3236 (Simulation time: 0 hr 5 min 26 sec) 
Heartbeat CPU 0 instructions: 90000000 cycles: 63524719 heartbeat IPC: 1.23275 cumulative IPC: 1.31151 (Simulation time: 0 hr 6 min 14 sec) 
Heartbeat CPU 0 instructions: 100000000 cycles: 70667875 heartbeat IPC: 1.39994 cumulative IPC: 1.32078 (Simulation time: 0 hr 6 min 53 sec) 
Heartbeat CPU 0 instructions: 110000002 cycles: 78547077 heartbeat IPC: 1.26916 cumulative IPC: 1.31543 (Simulation time: 0 hr 7 min 39 sec) 
Finished CPU 0 instructions: 100000000 cycles: 76020558 cumulative IPC: 1.31543 (Simulation time: 0 hr 7 min 39 sec) 

ChampSim completed all CPUs

Region of Interest Statistics

CPU 0 cumulative IPC: 1.31543 instructions: 100000000 cycles: 76020558
cpu0_DTLB TOTAL     ACCESS:   11764375  HIT:   10332477  MISS:    1431898
cpu0_DTLB LOAD      ACCESS:    9178224  HIT:    7747889  MISS:    1430335
cpu0_DTLB RFO       ACCESS:    2586151  HIT:    2584588  MISS:       1563
cpu0_DTLB PREFETCH  ACCESS:          0  HIT:          0  MISS:          0
cpu0_DTLB WRITEBACK ACCESS:          0  HIT:          0  MISS:          0
cpu0_DTLB TRANSLATION ACCESS:          0  HIT:          0  MISS:          0
cpu0_DTLB PREFETCH  REQUESTED:          0  ISSUED:          0  USEFUL:          0  USELESS:          0
cpu0_DTLB AVERAGE MISS LATENCY: 17.7136 cycles
cpu0_ITLB TOTAL     ACCESS:    7987586  HIT:    7963419  MISS:      24167
cpu0_ITLB LOAD      ACCESS:    7987586  HIT:    7963419  MISS:      24167
cpu0_ITLB RFO       ACCESS:          0  HIT:          0  MISS:          0
cpu0_ITLB PREFETCH  ACCESS:          0  HIT:          0  MISS:          0
cpu0_ITLB WRITEBACK ACCESS:          0  HIT:          0  MISS:          0
cpu0_ITLB TRANSLATION ACCESS:          0  HIT:          0  MISS:          0
cpu0_ITLB PREFETCH  REQUESTED:          0  ISSUED:          0  USEFUL:          0  USELESS:          0
cpu0_ITLB AVERAGE MISS LATENCY: 10.8433 cycles
cpu0_L1I TOTAL     ACCESS:    1939573  HIT:    1876722  MISS:      62851
cpu0_L1I LOAD      ACCESS:    1939573  HIT:    1876722  MISS:      62851
cpu0_L1I RFO       ACCESS:          0  HIT:          0  MISS:          0
cpu0_L1I PREFETCH  ACCESS:          0  HIT:          0  MISS:          0
cpu0_L1I WRITEBACK ACCESS:          0  HIT:          0  MISS:          0
cpu0_L1I TRANSLATION ACCESS:          0  HIT:          0  MISS:          0
cpu0_L1I PREFETCH  REQUESTED:          0  ISSUED:          0  USEFUL:          0  USELESS:          0
cpu0_L1I AVERAGE MISS LATENCY: 48.8518 cycles
cpu0_STLB TOTAL     ACCESS:    1456065  HIT:      23516  MISS:    1432549
cpu0_STLB LOAD      ACCESS:    1454502  HIT:      22770  MISS:    1431732
cpu0_STLB RFO       ACCESS:       1563  HIT:        746  MISS:        817
cpu0_STLB PREFETCH  ACCESS:          0  HIT:          0  MISS:          0
cpu0_STLB WRITEBACK ACCESS:          0  HIT:          0  MISS:          0
cpu0_STLB TRANSLATION ACCESS:          0  HIT:          0  MISS:          0
cpu0_STLB PREFETCH  REQUESTED:          0  ISSUED:          0  USEFUL:          0  USELESS:          0
cpu0_STLB AVERAGE MISS LATENCY: 8.32143 cycles
cpu0_L1D TOTAL     ACCESS:   12765449  HIT:   10275556  MISS:    2489893
cpu0_L1D LOAD      ACCESS:    7422214  HIT:    4971016  MISS:    2451198
cpu0_L1D RFO       ACCESS:    4650969  HIT:    4613260  MISS:      37709
cpu0_L1D PREFETCH  ACCESS:          0  HIT:          0  MISS:          0
cpu0_L1D WRITEBACK ACCESS:          0  HIT:          0  MISS:          0
cpu0_L1D TRANSLATION ACCESS:     692266  HIT:     691280  MISS:        986
cpu0_L1D PREFETCH  REQUESTED:          0  ISSUED:          0  USEFUL:          0  USELESS:          0
cpu0_L1D AVERAGE MISS LATENCY: 92.4756 cycles
cpu0_L2C TOTAL     ACCESS:    2633689  HIT:     114308  MISS:    2519381
cpu0_L2C LOAD      ACCESS:    2514048  HIT:      32380  MISS:    2481668
cpu0_L2C RFO       ACCESS:      37709  HIT:        794  MISS:      36915
cpu0_L2C PREFETCH  ACCESS:          0  HIT:          0  MISS:          0
cpu0_L2C WRITEBACK ACCESS:      80946  HIT:      80946  MISS:          0
cpu0_L2C TRANSLATION ACCESS:        986  HIT:        188  MISS:        798
cpu0_L2C PREFETCH  REQUESTED:          0  ISSUED:          0  USEFUL:          0  USELESS:          0
cpu0_L2C AVERAGE MISS LATENCY: 80.9225 cycles
LLC TOTAL     ACCESS:    2598919  HIT:    2088336  MISS:     510583
LLC LOAD      ACCESS:    2481665  HIT:    1997279  MISS:     484386
LLC RFO       ACCESS:      36915  HIT:      17269  MISS:      19646
LLC PREFETCH  ACCESS:          0  HIT:          0  MISS:          0
LLC WRITEBACK ACCESS:      79541  HIT:      73195  MISS:       6346
LLC TRANSLATION ACCESS:        798  HIT:        593  MISS:        205
LLC PREFETCH  REQUESTED:          0  ISSUED:          0  USEFUL:          0  USELESS:          0
LLC AVERAGE MISS LATENCY: 295.614 cycles

DRAM Statistics
 CHANNEL 0
 RQ ROW_BUFFER_HIT:      24122  ROW_BUFFER_MISS:     476546
 DBUS AVG_CONGESTED_CYCLE:    3.94796
 WQ ROW_BUFFER_HIT:       6078  ROW_BUFFER_MISS:      46682  FULL:          0


CPU 0 Branch Prediction Accuracy: 97.4293% MPKI: 8.26178 Average ROB Occupancy at Mispredict: 57.0688
Branch type MPKI
BRANCH_DIRECT_JUMP: 0.00037
BRANCH_INDIRECT: 0.12485
BRANCH_CONDITIONAL: 8.10493
BRANCH_DIRECT_CALL: 0.00326
BRANCH_INDIRECT_CALL: 0.00558
BRANCH_RETURN: 0.02279

