
*** ChampSim Multicore Out-of-Order Simulator ***

Warmup Instructions: 10000000
Simulation Instructions: 100000000
Number of CPUs: 1
Off-chip DRAM Size: 4 GiB Channels: 1 Width: 64-bit Data Rate: 3200 MT/s

VirtualMemory physical capacity: 8588881920 num_ppages: 2096895
VirtualMemory page size: 4096 log2_page_size: 12

CPU 0 runs /datasets/cs240c-wi22-a00-public/data/Assignment2/soplex_217B.trace.xz
CPU 0 Bimodal branch predictor
Basic BTB sets: 1024 ways: 8 indirect buffer size: 4096 RAS size: 64
Initialize Hawkeye state
Initialize SRRIP state
Heartbeat CPU 0 instructions: 10000000 cycles: 2844430 heartbeat IPC: 3.51564 cumulative IPC: 3.51564 (Simulation time: 0 hr 0 min 35 sec) 

Warmup complete CPU 0 instructions: 10000004 cycles: 2844431 (Simulation time: 0 hr 0 min 35 sec) 

Heartbeat CPU 0 instructions: 20000000 cycles: 34431903 heartbeat IPC: 0.316581 cumulative IPC: 0.316581 (Simulation time: 0 hr 2 min 19 sec) 
Heartbeat CPU 0 instructions: 30000004 cycles: 64622267 heartbeat IPC: 0.331232 cumulative IPC: 0.323741 (Simulation time: 0 hr 4 min 8 sec) 
Heartbeat CPU 0 instructions: 40000003 cycles: 95614367 heartbeat IPC: 0.322663 cumulative IPC: 0.323381 (Simulation time: 0 hr 5 min 50 sec) 
Heartbeat CPU 0 instructions: 50000000 cycles: 124406906 heartbeat IPC: 0.347312 cumulative IPC: 0.329049 (Simulation time: 0 hr 7 min 30 sec) 
Heartbeat CPU 0 instructions: 60000002 cycles: 155098546 heartbeat IPC: 0.325822 cumulative IPC: 0.328398 (Simulation time: 0 hr 9 min 14 sec) 
Heartbeat CPU 0 instructions: 70000000 cycles: 199677852 heartbeat IPC: 0.224319 cumulative IPC: 0.304826 (Simulation time: 0 hr 11 min 43 sec) 
Heartbeat CPU 0 instructions: 80000000 cycles: 232089765 heartbeat IPC: 0.308529 cumulative IPC: 0.30535 (Simulation time: 0 hr 13 min 16 sec) 
Heartbeat CPU 0 instructions: 90000002 cycles: 259937887 heartbeat IPC: 0.359091 cumulative IPC: 0.311171 (Simulation time: 0 hr 14 min 55 sec) 
Heartbeat CPU 0 instructions: 100000001 cycles: 292019534 heartbeat IPC: 0.311705 cumulative IPC: 0.31123 (Simulation time: 0 hr 16 min 46 sec) 
Heartbeat CPU 0 instructions: 110000000 cycles: 320225668 heartbeat IPC: 0.354533 cumulative IPC: 0.315078 (Simulation time: 0 hr 18 min 13 sec) 
Finished CPU 0 instructions: 100000000 cycles: 317381239 cumulative IPC: 0.315078 (Simulation time: 0 hr 18 min 13 sec) 

ChampSim completed all CPUs

Region of Interest Statistics

CPU 0 cumulative IPC: 0.315078 instructions: 100000000 cycles: 317381239
cpu0_DTLB TOTAL     ACCESS:   21858231  HIT:   20992332  MISS:     865899
cpu0_DTLB LOAD      ACCESS:   16693321  HIT:   16009280  MISS:     684041
cpu0_DTLB RFO       ACCESS:    5164910  HIT:    4983052  MISS:     181858
cpu0_DTLB PREFETCH  ACCESS:          0  HIT:          0  MISS:          0
cpu0_DTLB WRITEBACK ACCESS:          0  HIT:          0  MISS:          0
cpu0_DTLB TRANSLATION ACCESS:          0  HIT:          0  MISS:          0
cpu0_DTLB PREFETCH  REQUESTED:          0  ISSUED:          0  USEFUL:          0  USELESS:          0
cpu0_DTLB AVERAGE MISS LATENCY: 15.6893 cycles
cpu0_ITLB TOTAL     ACCESS:    8511125  HIT:    8511107  MISS:         18
cpu0_ITLB LOAD      ACCESS:    8511125  HIT:    8511107  MISS:         18
cpu0_ITLB RFO       ACCESS:          0  HIT:          0  MISS:          0
cpu0_ITLB PREFETCH  ACCESS:          0  HIT:          0  MISS:          0
cpu0_ITLB WRITEBACK ACCESS:          0  HIT:          0  MISS:          0
cpu0_ITLB TRANSLATION ACCESS:          0  HIT:          0  MISS:          0
cpu0_ITLB PREFETCH  REQUESTED:          0  ISSUED:          0  USEFUL:          0  USELESS:          0
cpu0_ITLB AVERAGE MISS LATENCY: 467.389 cycles
cpu0_L1I TOTAL     ACCESS:     353879  HIT:     353226  MISS:        653
cpu0_L1I LOAD      ACCESS:     353879  HIT:     353226  MISS:        653
cpu0_L1I RFO       ACCESS:          0  HIT:          0  MISS:          0
cpu0_L1I PREFETCH  ACCESS:          0  HIT:          0  MISS:          0
cpu0_L1I WRITEBACK ACCESS:          0  HIT:          0  MISS:          0
cpu0_L1I TRANSLATION ACCESS:          0  HIT:          0  MISS:          0
cpu0_L1I PREFETCH  REQUESTED:          0  ISSUED:          0  USEFUL:          0  USELESS:          0
cpu0_L1I AVERAGE MISS LATENCY: 305.104 cycles
cpu0_STLB TOTAL     ACCESS:     865917  HIT:     742403  MISS:     123514
cpu0_STLB LOAD      ACCESS:     684059  HIT:     569897  MISS:     114162
cpu0_STLB RFO       ACCESS:     181858  HIT:     172506  MISS:       9352
cpu0_STLB PREFETCH  ACCESS:          0  HIT:          0  MISS:          0
cpu0_STLB WRITEBACK ACCESS:          0  HIT:          0  MISS:          0
cpu0_STLB TRANSLATION ACCESS:          0  HIT:          0  MISS:          0
cpu0_STLB PREFETCH  REQUESTED:          0  ISSUED:          0  USEFUL:          0  USELESS:          0
cpu0_STLB AVERAGE MISS LATENCY: 45.7906 cycles
cpu0_L1D TOTAL     ACCESS:   18158683  HIT:   12334711  MISS:    5823972
cpu0_L1D LOAD      ACCESS:   12233843  HIT:    7239530  MISS:    4994313
cpu0_L1D RFO       ACCESS:    5804954  HIT:    4980325  MISS:     824629
cpu0_L1D PREFETCH  ACCESS:          0  HIT:          0  MISS:          0
cpu0_L1D WRITEBACK ACCESS:          0  HIT:          0  MISS:          0
cpu0_L1D TRANSLATION ACCESS:     119886  HIT:     114856  MISS:       5030
cpu0_L1D PREFETCH  REQUESTED:          0  ISSUED:          0  USEFUL:          0  USELESS:          0
cpu0_L1D AVERAGE MISS LATENCY: 198.866 cycles
cpu0_L2C TOTAL     ACCESS:    8411769  HIT:    3954491  MISS:    4457278
cpu0_L2C LOAD      ACCESS:    4994403  HIT:    1232104  MISS:    3762299
cpu0_L2C RFO       ACCESS:     824568  HIT:     130444  MISS:     694124
cpu0_L2C PREFETCH  ACCESS:          0  HIT:          0  MISS:          0
cpu0_L2C WRITEBACK ACCESS:    2587768  HIT:    2587665  MISS:        103
cpu0_L2C TRANSLATION ACCESS:       5030  HIT:       4278  MISS:        752
cpu0_L2C PREFETCH  REQUESTED:          0  ISSUED:          0  USEFUL:          0  USELESS:          0
cpu0_L2C AVERAGE MISS LATENCY: 245.277 cycles
LLC TOTAL     ACCESS:    6308169  HIT:    3334498  MISS:    2973671
LLC LOAD      ACCESS:    3762285  HIT:    1513278  MISS:    2249007
LLC RFO       ACCESS:     694122  HIT:     242150  MISS:     451972
LLC PREFETCH  ACCESS:          0  HIT:          0  MISS:          0
LLC WRITEBACK ACCESS:    1851010  HIT:    1578721  MISS:     272289
LLC TRANSLATION ACCESS:        752  HIT:        349  MISS:        403
LLC PREFETCH  REQUESTED:          0  ISSUED:          0  USEFUL:          0  USELESS:          0
LLC AVERAGE MISS LATENCY: 336.05 cycles

DRAM Statistics
 CHANNEL 0
 RQ ROW_BUFFER_HIT:     280594  ROW_BUFFER_MISS:    2417745
 DBUS AVG_CONGESTED_CYCLE:      3.949
 WQ ROW_BUFFER_HIT:      36771  ROW_BUFFER_MISS:     882603  FULL:     172662


CPU 0 Branch Prediction Accuracy: 93.2069% MPKI: 14.28 Average ROB Occupancy at Mispredict: 48.9834
Branch type MPKI
BRANCH_DIRECT_JUMP: 0.00099
BRANCH_INDIRECT: 0.00023
BRANCH_CONDITIONAL: 14.2767
BRANCH_DIRECT_CALL: 0.00062
BRANCH_INDIRECT_CALL: 0.00054
BRANCH_RETURN: 0.00093

