
*** ChampSim Multicore Out-of-Order Simulator ***

Warmup Instructions: 10000000
Simulation Instructions: 100000000
Number of CPUs: 1
Off-chip DRAM Size: 4 GiB Channels: 1 Width: 64-bit Data Rate: 3200 MT/s

VirtualMemory physical capacity: 8588881920 num_ppages: 2096895
VirtualMemory page size: 4096 log2_page_size: 12

CPU 0 runs /datasets/cs240c-wi22-a00-public/data/Assignment2/leslie3d_1116B.trace.xz
CPU 0 Bimodal branch predictor
Basic BTB sets: 1024 ways: 8 indirect buffer size: 4096 RAS size: 64
5th iteration
No hysteresis, common rrpv
Initialize Hawkeye state
Initialize SRRIP state
Heartbeat CPU 0 instructions: 10000000 cycles: 3692438 heartbeat IPC: 2.70824 cumulative IPC: 2.70824 (Simulation time: 0 hr 0 min 34 sec) 

Warmup complete CPU 0 instructions: 10000005 cycles: 3692439 (Simulation time: 0 hr 0 min 34 sec) 

Heartbeat CPU 0 instructions: 20000000 cycles: 13390507 heartbeat IPC: 1.03113 cumulative IPC: 1.03113 (Simulation time: 0 hr 1 min 34 sec) 
Heartbeat CPU 0 instructions: 30000004 cycles: 22644972 heartbeat IPC: 1.08056 cumulative IPC: 1.05527 (Simulation time: 0 hr 2 min 33 sec) 
Heartbeat CPU 0 instructions: 40000003 cycles: 34503716 heartbeat IPC: 0.84326 cumulative IPC: 0.973669 (Simulation time: 0 hr 3 min 39 sec) 
Heartbeat CPU 0 instructions: 50000000 cycles: 56295408 heartbeat IPC: 0.45889 cumulative IPC: 0.760413 (Simulation time: 0 hr 5 min 17 sec) 
Heartbeat CPU 0 instructions: 60000001 cycles: 110277680 heartbeat IPC: 0.185246 cumulative IPC: 0.469108 (Simulation time: 0 hr 8 min 42 sec) 
Heartbeat CPU 0 instructions: 70000000 cycles: 124264019 heartbeat IPC: 0.714983 cumulative IPC: 0.49763 (Simulation time: 0 hr 9 min 59 sec) 
Heartbeat CPU 0 instructions: 80000001 cycles: 136639645 heartbeat IPC: 0.80804 cumulative IPC: 0.526525 (Simulation time: 0 hr 11 min 10 sec) 
Heartbeat CPU 0 instructions: 90000004 cycles: 149711018 heartbeat IPC: 0.765031 cumulative IPC: 0.547875 (Simulation time: 0 hr 12 min 24 sec) 
Heartbeat CPU 0 instructions: 100000002 cycles: 162525095 heartbeat IPC: 0.780392 cumulative IPC: 0.566634 (Simulation time: 0 hr 13 min 36 sec) 
Heartbeat CPU 0 instructions: 110000001 cycles: 179935948 heartbeat IPC: 0.574354 cumulative IPC: 0.567397 (Simulation time: 0 hr 14 min 59 sec) 
Finished CPU 0 instructions: 100000001 cycles: 176243510 cumulative IPC: 0.567397 (Simulation time: 0 hr 14 min 59 sec) 

ChampSim completed all CPUs

Region of Interest Statistics

CPU 0 cumulative IPC: 0.567397 instructions: 100000001 cycles: 176243510
cpu0_DTLB TOTAL     ACCESS:   25743886  HIT:   25678197  MISS:      65689
cpu0_DTLB LOAD      ACCESS:   21131420  HIT:   21079774  MISS:      51646
cpu0_DTLB RFO       ACCESS:    4612466  HIT:    4598423  MISS:      14043
cpu0_DTLB PREFETCH  ACCESS:          0  HIT:          0  MISS:          0
cpu0_DTLB WRITEBACK ACCESS:          0  HIT:          0  MISS:          0
cpu0_DTLB TRANSLATION ACCESS:          0  HIT:          0  MISS:          0
cpu0_DTLB PREFETCH  REQUESTED:          0  ISSUED:          0  USEFUL:          0  USELESS:          0
cpu0_DTLB AVERAGE MISS LATENCY: 86.2058 cycles
cpu0_ITLB TOTAL     ACCESS:    2887928  HIT:    2887910  MISS:         18
cpu0_ITLB LOAD      ACCESS:    2887928  HIT:    2887910  MISS:         18
cpu0_ITLB RFO       ACCESS:          0  HIT:          0  MISS:          0
cpu0_ITLB PREFETCH  ACCESS:          0  HIT:          0  MISS:          0
cpu0_ITLB WRITEBACK ACCESS:          0  HIT:          0  MISS:          0
cpu0_ITLB TRANSLATION ACCESS:          0  HIT:          0  MISS:          0
cpu0_ITLB PREFETCH  REQUESTED:          0  ISSUED:          0  USEFUL:          0  USELESS:          0
cpu0_ITLB AVERAGE MISS LATENCY: 467.333 cycles
cpu0_L1I TOTAL     ACCESS:    1781974  HIT:    1781502  MISS:        472
cpu0_L1I LOAD      ACCESS:    1781974  HIT:    1781502  MISS:        472
cpu0_L1I RFO       ACCESS:          0  HIT:          0  MISS:          0
cpu0_L1I PREFETCH  ACCESS:          0  HIT:          0  MISS:          0
cpu0_L1I WRITEBACK ACCESS:          0  HIT:          0  MISS:          0
cpu0_L1I TRANSLATION ACCESS:          0  HIT:          0  MISS:          0
cpu0_L1I PREFETCH  REQUESTED:          0  ISSUED:          0  USEFUL:          0  USELESS:          0
cpu0_L1I AVERAGE MISS LATENCY: 372.22 cycles
cpu0_STLB TOTAL     ACCESS:      65707  HIT:      34083  MISS:      31624
cpu0_STLB LOAD      ACCESS:      51664  HIT:      28198  MISS:      23466
cpu0_STLB RFO       ACCESS:      14043  HIT:       5885  MISS:       8158
cpu0_STLB PREFETCH  ACCESS:          0  HIT:          0  MISS:          0
cpu0_STLB WRITEBACK ACCESS:          0  HIT:          0  MISS:          0
cpu0_STLB TRANSLATION ACCESS:          0  HIT:          0  MISS:          0
cpu0_STLB PREFETCH  REQUESTED:          0  ISSUED:          0  USEFUL:          0  USELESS:          0
cpu0_STLB AVERAGE MISS LATENCY: 160.619 cycles
cpu0_L1D TOTAL     ACCESS:   24556470  HIT:   21146282  MISS:    3410188
cpu0_L1D LOAD      ACCESS:   16403579  HIT:   13786432  MISS:    2617147
cpu0_L1D RFO       ACCESS:    8123577  HIT:    7334176  MISS:     789401
cpu0_L1D PREFETCH  ACCESS:          0  HIT:          0  MISS:          0
cpu0_L1D WRITEBACK ACCESS:          0  HIT:          0  MISS:          0
cpu0_L1D TRANSLATION ACCESS:      29314  HIT:      25674  MISS:       3640
cpu0_L1D PREFETCH  REQUESTED:          0  ISSUED:          0  USEFUL:          0  USELESS:          0
cpu0_L1D AVERAGE MISS LATENCY: 478.867 cycles
cpu0_L2C TOTAL     ACCESS:    4455103  HIT:    1718428  MISS:    2736675
cpu0_L2C LOAD      ACCESS:    2617570  HIT:     507638  MISS:    2109932
cpu0_L2C RFO       ACCESS:     789322  HIT:     162844  MISS:     626478
cpu0_L2C PREFETCH  ACCESS:          0  HIT:          0  MISS:          0
cpu0_L2C WRITEBACK ACCESS:    1044571  HIT:    1044404  MISS:        167
cpu0_L2C TRANSLATION ACCESS:       3640  HIT:       3542  MISS:         98
cpu0_L2C PREFETCH  REQUESTED:          0  ISSUED:          0  USEFUL:          0  USELESS:          0
cpu0_L2C AVERAGE MISS LATENCY: 583.045 cycles
LLC TOTAL     ACCESS:    3497221  HIT:     791824  MISS:    2705397
LLC LOAD      ACCESS:    2109932  HIT:     486724  MISS:    1623208
LLC RFO       ACCESS:     626478  HIT:     113925  MISS:     512553
LLC PREFETCH  ACCESS:          0  HIT:          0  MISS:          0
LLC WRITEBACK ACCESS:     760713  HIT:     191156  MISS:     569557
LLC TRANSLATION ACCESS:         98  HIT:         19  MISS:         79
LLC PREFETCH  REQUESTED:          0  ISSUED:          0  USEFUL:          0  USELESS:          0
LLC AVERAGE MISS LATENCY: 568.482 cycles

DRAM Statistics
 CHANNEL 0
 RQ ROW_BUFFER_HIT:     222655  ROW_BUFFER_MISS:    1912937
 DBUS AVG_CONGESTED_CYCLE:    3.95938
 WQ ROW_BUFFER_HIT:      60847  ROW_BUFFER_MISS:     592995  FULL:      33411


CPU 0 Branch Prediction Accuracy: 96.8713% MPKI: 1.55303 Average ROB Occupancy at Mispredict: 298.091
Branch type MPKI
BRANCH_DIRECT_JUMP: 0.00018
BRANCH_INDIRECT: 0
BRANCH_CONDITIONAL: 1.55065
BRANCH_DIRECT_CALL: 0.00113
BRANCH_INDIRECT_CALL: 0
BRANCH_RETURN: 0.00107

