
*** ChampSim Multicore Out-of-Order Simulator ***

Warmup Instructions: 10000000
Simulation Instructions: 100000000
Number of CPUs: 1
Off-chip DRAM Size: 4 GiB Channels: 1 Width: 64-bit Data Rate: 3200 MT/s

VirtualMemory physical capacity: 8588881920 num_ppages: 2096895
VirtualMemory page size: 4096 log2_page_size: 12

CPU 0 runs /datasets/cs240c-wi22-a00-public/data/Assignment2/wrf_1650B.trace.xz
CPU 0 Bimodal branch predictor
Basic BTB sets: 1024 ways: 8 indirect buffer size: 4096 RAS size: 64
5th iteration
No hysteresis, common rrpv
Initialize Hawkeye state
Initialize SRRIP state
Heartbeat CPU 0 instructions: 10000001 cycles: 2500100 heartbeat IPC: 3.99984 cumulative IPC: 3.99984 (Simulation time: 0 hr 0 min 18 sec) 

Warmup complete CPU 0 instructions: 10000001 cycles: 2500100 (Simulation time: 0 hr 0 min 18 sec) 

Heartbeat CPU 0 instructions: 20000004 cycles: 12137577 heartbeat IPC: 1.03762 cumulative IPC: 1.03762 (Simulation time: 0 hr 0 min 59 sec) 
Heartbeat CPU 0 instructions: 30000000 cycles: 21774170 heartbeat IPC: 1.03771 cumulative IPC: 1.03766 (Simulation time: 0 hr 1 min 40 sec) 
Heartbeat CPU 0 instructions: 40000002 cycles: 31416703 heartbeat IPC: 1.03707 cumulative IPC: 1.03747 (Simulation time: 0 hr 2 min 21 sec) 
Heartbeat CPU 0 instructions: 50000001 cycles: 47920386 heartbeat IPC: 0.605925 cumulative IPC: 0.880664 (Simulation time: 0 hr 3 min 27 sec) 
Heartbeat CPU 0 instructions: 60000000 cycles: 60537758 heartbeat IPC: 0.792558 cumulative IPC: 0.86151 (Simulation time: 0 hr 4 min 36 sec) 
Heartbeat CPU 0 instructions: 70000002 cycles: 76370288 heartbeat IPC: 0.631611 cumulative IPC: 0.812236 (Simulation time: 0 hr 5 min 36 sec) 
Heartbeat CPU 0 instructions: 80000004 cycles: 92515507 heartbeat IPC: 0.619379 cumulative IPC: 0.777645 (Simulation time: 0 hr 7 min 17 sec) 
Heartbeat CPU 0 instructions: 90000002 cycles: 109347516 heartbeat IPC: 0.594106 cumulative IPC: 0.748731 (Simulation time: 0 hr 9 min 17 sec) 
Heartbeat CPU 0 instructions: 100000004 cycles: 127639163 heartbeat IPC: 0.546698 cumulative IPC: 0.7192 (Simulation time: 0 hr 11 min 21 sec) 
Heartbeat CPU 0 instructions: 110000004 cycles: 146364102 heartbeat IPC: 0.534047 cumulative IPC: 0.695101 (Simulation time: 0 hr 12 min 53 sec) 
Finished CPU 0 instructions: 100000003 cycles: 143864002 cumulative IPC: 0.695101 (Simulation time: 0 hr 12 min 53 sec) 

ChampSim completed all CPUs

Region of Interest Statistics

CPU 0 cumulative IPC: 0.695101 instructions: 100000003 cycles: 143864002
cpu0_DTLB TOTAL     ACCESS:   16132626  HIT:   16101864  MISS:      30762
cpu0_DTLB LOAD      ACCESS:   14716889  HIT:   14692869  MISS:      24020
cpu0_DTLB RFO       ACCESS:    1415737  HIT:    1408995  MISS:       6742
cpu0_DTLB PREFETCH  ACCESS:          0  HIT:          0  MISS:          0
cpu0_DTLB WRITEBACK ACCESS:          0  HIT:          0  MISS:          0
cpu0_DTLB TRANSLATION ACCESS:          0  HIT:          0  MISS:          0
cpu0_DTLB PREFETCH  REQUESTED:          0  ISSUED:          0  USEFUL:          0  USELESS:          0
cpu0_DTLB AVERAGE MISS LATENCY: 147.611 cycles
cpu0_ITLB TOTAL     ACCESS:    6815486  HIT:    6815459  MISS:         27
cpu0_ITLB LOAD      ACCESS:    6815486  HIT:    6815459  MISS:         27
cpu0_ITLB RFO       ACCESS:          0  HIT:          0  MISS:          0
cpu0_ITLB PREFETCH  ACCESS:          0  HIT:          0  MISS:          0
cpu0_ITLB WRITEBACK ACCESS:          0  HIT:          0  MISS:          0
cpu0_ITLB TRANSLATION ACCESS:          0  HIT:          0  MISS:          0
cpu0_ITLB PREFETCH  REQUESTED:          0  ISSUED:          0  USEFUL:          0  USELESS:          0
cpu0_ITLB AVERAGE MISS LATENCY: 224.556 cycles
cpu0_L1I TOTAL     ACCESS:    1672726  HIT:    1672182  MISS:        544
cpu0_L1I LOAD      ACCESS:    1672726  HIT:    1672182  MISS:        544
cpu0_L1I RFO       ACCESS:          0  HIT:          0  MISS:          0
cpu0_L1I PREFETCH  ACCESS:          0  HIT:          0  MISS:          0
cpu0_L1I WRITEBACK ACCESS:          0  HIT:          0  MISS:          0
cpu0_L1I TRANSLATION ACCESS:          0  HIT:          0  MISS:          0
cpu0_L1I PREFETCH  REQUESTED:          0  ISSUED:          0  USEFUL:          0  USELESS:          0
cpu0_L1I AVERAGE MISS LATENCY: 356.221 cycles
cpu0_STLB TOTAL     ACCESS:      30789  HIT:      16559  MISS:      14230
cpu0_STLB LOAD      ACCESS:      24047  HIT:      13007  MISS:      11040
cpu0_STLB RFO       ACCESS:       6742  HIT:       3552  MISS:       3190
cpu0_STLB PREFETCH  ACCESS:          0  HIT:          0  MISS:          0
cpu0_STLB WRITEBACK ACCESS:          0  HIT:          0  MISS:          0
cpu0_STLB TRANSLATION ACCESS:          0  HIT:          0  MISS:          0
cpu0_STLB PREFETCH  REQUESTED:          0  ISSUED:          0  USEFUL:          0  USELESS:          0
cpu0_STLB AVERAGE MISS LATENCY: 300.053 cycles
cpu0_L1D TOTAL     ACCESS:   14622057  HIT:   13589904  MISS:    1032153
cpu0_L1D LOAD      ACCESS:   12331922  HIT:   11514451  MISS:     817471
cpu0_L1D RFO       ACCESS:    2277274  HIT:    2063166  MISS:     214108
cpu0_L1D PREFETCH  ACCESS:          0  HIT:          0  MISS:          0
cpu0_L1D WRITEBACK ACCESS:          0  HIT:          0  MISS:          0
cpu0_L1D TRANSLATION ACCESS:      12861  HIT:      12287  MISS:        574
cpu0_L1D PREFETCH  REQUESTED:          0  ISSUED:          0  USEFUL:          0  USELESS:          0
cpu0_L1D AVERAGE MISS LATENCY: 235.275 cycles
cpu0_L2C TOTAL     ACCESS:    1279495  HIT:     490660  MISS:     788835
cpu0_L2C LOAD      ACCESS:     818007  HIT:     229605  MISS:     588402
cpu0_L2C RFO       ACCESS:     214104  HIT:      13796  MISS:     200308
cpu0_L2C PREFETCH  ACCESS:          0  HIT:          0  MISS:          0
cpu0_L2C WRITEBACK ACCESS:     246810  HIT:     246729  MISS:         81
cpu0_L2C TRANSLATION ACCESS:        574  HIT:        530  MISS:         44
cpu0_L2C PREFETCH  REQUESTED:          0  ISSUED:          0  USEFUL:          0  USELESS:          0
cpu0_L2C AVERAGE MISS LATENCY: 293.682 cycles
LLC TOTAL     ACCESS:    1004939  HIT:     109938  MISS:     895001
LLC LOAD      ACCESS:     588402  HIT:      28615  MISS:     559787
LLC RFO       ACCESS:     200308  HIT:         65  MISS:     200243
LLC PREFETCH  ACCESS:          0  HIT:          0  MISS:          0
LLC WRITEBACK ACCESS:     216185  HIT:      81237  MISS:     134948
LLC TRANSLATION ACCESS:         44  HIT:         21  MISS:         23
LLC PREFETCH  REQUESTED:          0  ISSUED:          0  USEFUL:          0  USELESS:          0
LLC AVERAGE MISS LATENCY: 240.338 cycles

DRAM Statistics
 CHANNEL 0
 RQ ROW_BUFFER_HIT:      26560  ROW_BUFFER_MISS:     733484
 DBUS AVG_CONGESTED_CYCLE:    3.93428
 WQ ROW_BUFFER_HIT:      34467  ROW_BUFFER_MISS:     180146  FULL:          0


CPU 0 Branch Prediction Accuracy: 83.2596% MPKI: 18.9931 Average ROB Occupancy at Mispredict: 253.252
Branch type MPKI
BRANCH_DIRECT_JUMP: 0.0005
BRANCH_INDIRECT: 0
BRANCH_CONDITIONAL: 18.9921
BRANCH_DIRECT_CALL: 0.00023
BRANCH_INDIRECT_CALL: 0
BRANCH_RETURN: 0.00022

