
*** ChampSim Multicore Out-of-Order Simulator ***

Warmup Instructions: 10000000
Simulation Instructions: 100000000
Number of CPUs: 1
Off-chip DRAM Size: 4 GiB Channels: 1 Width: 64-bit Data Rate: 3200 MT/s

VirtualMemory physical capacity: 8588881920 num_ppages: 2096895
VirtualMemory page size: 4096 log2_page_size: 12

CPU 0 runs /datasets/cs240c-wi22-a00-public/data/Assignment2/xalancbmk_99B.trace.xz
CPU 0 Bimodal branch predictor
Basic BTB sets: 1024 ways: 8 indirect buffer size: 4096 RAS size: 64
5th iteration
No hysteresis, common rrpv
Initialize Hawkeye state
Initialize SRRIP state
Heartbeat CPU 0 instructions: 10000001 cycles: 3058910 heartbeat IPC: 3.26914 cumulative IPC: 3.26914 (Simulation time: 0 hr 0 min 27 sec) 

Warmup complete CPU 0 instructions: 10000001 cycles: 3058910 (Simulation time: 0 hr 0 min 27 sec) 

Heartbeat CPU 0 instructions: 20000003 cycles: 37847081 heartbeat IPC: 0.287454 cumulative IPC: 0.287454 (Simulation time: 0 hr 1 min 13 sec) 
Heartbeat CPU 0 instructions: 30000000 cycles: 76225351 heartbeat IPC: 0.260564 cumulative IPC: 0.273349 (Simulation time: 0 hr 2 min 4 sec) 
Heartbeat CPU 0 instructions: 40000000 cycles: 112496133 heartbeat IPC: 0.275704 cumulative IPC: 0.27413 (Simulation time: 0 hr 2 min 52 sec) 
Heartbeat CPU 0 instructions: 50000001 cycles: 147928539 heartbeat IPC: 0.282228 cumulative IPC: 0.27611 (Simulation time: 0 hr 3 min 40 sec) 
Heartbeat CPU 0 instructions: 60000002 cycles: 183560557 heartbeat IPC: 0.280647 cumulative IPC: 0.277006 (Simulation time: 0 hr 4 min 28 sec) 
Heartbeat CPU 0 instructions: 70000002 cycles: 217338688 heartbeat IPC: 0.29605 cumulative IPC: 0.280008 (Simulation time: 0 hr 5 min 57 sec) 
Heartbeat CPU 0 instructions: 80000001 cycles: 252188155 heartbeat IPC: 0.286948 cumulative IPC: 0.280979 (Simulation time: 0 hr 7 min 24 sec) 
Heartbeat CPU 0 instructions: 90000000 cycles: 288458720 heartbeat IPC: 0.275706 cumulative IPC: 0.280309 (Simulation time: 0 hr 8 min 51 sec) 
Heartbeat CPU 0 instructions: 100000000 cycles: 320878621 heartbeat IPC: 0.308453 cumulative IPC: 0.283179 (Simulation time: 0 hr 10 min 4 sec) 
Heartbeat CPU 0 instructions: 110000001 cycles: 353792006 heartbeat IPC: 0.303828 cumulative IPC: 0.285117 (Simulation time: 0 hr 11 min 4 sec) 
Finished CPU 0 instructions: 100000000 cycles: 350733096 cumulative IPC: 0.285117 (Simulation time: 0 hr 11 min 4 sec) 

ChampSim completed all CPUs

Region of Interest Statistics

CPU 0 cumulative IPC: 0.285117 instructions: 100000000 cycles: 350733096
cpu0_DTLB TOTAL     ACCESS:   22792829  HIT:   22232186  MISS:     560643
cpu0_DTLB LOAD      ACCESS:   21413683  HIT:   20862607  MISS:     551076
cpu0_DTLB RFO       ACCESS:    1379146  HIT:    1369579  MISS:       9567
cpu0_DTLB PREFETCH  ACCESS:          0  HIT:          0  MISS:          0
cpu0_DTLB WRITEBACK ACCESS:          0  HIT:          0  MISS:          0
cpu0_DTLB TRANSLATION ACCESS:          0  HIT:          0  MISS:          0
cpu0_DTLB PREFETCH  REQUESTED:          0  ISSUED:          0  USEFUL:          0  USELESS:          0
cpu0_DTLB AVERAGE MISS LATENCY: 37.4256 cycles
cpu0_ITLB TOTAL     ACCESS:   13331750  HIT:   13304392  MISS:      27358
cpu0_ITLB LOAD      ACCESS:   13331750  HIT:   13304392  MISS:      27358
cpu0_ITLB RFO       ACCESS:          0  HIT:          0  MISS:          0
cpu0_ITLB PREFETCH  ACCESS:          0  HIT:          0  MISS:          0
cpu0_ITLB WRITEBACK ACCESS:          0  HIT:          0  MISS:          0
cpu0_ITLB TRANSLATION ACCESS:          0  HIT:          0  MISS:          0
cpu0_ITLB PREFETCH  REQUESTED:          0  ISSUED:          0  USEFUL:          0  USELESS:          0
cpu0_ITLB AVERAGE MISS LATENCY: 10.9215 cycles
cpu0_L1I TOTAL     ACCESS:     670894  HIT:     563809  MISS:     107085
cpu0_L1I LOAD      ACCESS:     670894  HIT:     563809  MISS:     107085
cpu0_L1I RFO       ACCESS:          0  HIT:          0  MISS:          0
cpu0_L1I PREFETCH  ACCESS:          0  HIT:          0  MISS:          0
cpu0_L1I WRITEBACK ACCESS:          0  HIT:          0  MISS:          0
cpu0_L1I TRANSLATION ACCESS:          0  HIT:          0  MISS:          0
cpu0_L1I PREFETCH  REQUESTED:          0  ISSUED:          0  USEFUL:          0  USELESS:          0
cpu0_L1I AVERAGE MISS LATENCY: 28.9262 cycles
cpu0_STLB TOTAL     ACCESS:     588001  HIT:     172988  MISS:     415013
cpu0_STLB LOAD      ACCESS:     578434  HIT:     164940  MISS:     413494
cpu0_STLB RFO       ACCESS:       9567  HIT:       8048  MISS:       1519
cpu0_STLB PREFETCH  ACCESS:          0  HIT:          0  MISS:          0
cpu0_STLB WRITEBACK ACCESS:          0  HIT:          0  MISS:          0
cpu0_STLB TRANSLATION ACCESS:          0  HIT:          0  MISS:          0
cpu0_STLB PREFETCH  REQUESTED:          0  ISSUED:          0  USEFUL:          0  USELESS:          0
cpu0_STLB AVERAGE MISS LATENCY: 38.4513 cycles
cpu0_L1D TOTAL     ACCESS:   17703267  HIT:   14558124  MISS:    3145143
cpu0_L1D LOAD      ACCESS:   15463296  HIT:   12336061  MISS:    3127235
cpu0_L1D RFO       ACCESS:    1870239  HIT:    1858284  MISS:      11955
cpu0_L1D PREFETCH  ACCESS:          0  HIT:          0  MISS:          0
cpu0_L1D WRITEBACK ACCESS:          0  HIT:          0  MISS:          0
cpu0_L1D TRANSLATION ACCESS:     369732  HIT:     363779  MISS:       5953
cpu0_L1D PREFETCH  REQUESTED:          0  ISSUED:          0  USEFUL:          0  USELESS:          0
cpu0_L1D AVERAGE MISS LATENCY: 144.263 cycles
cpu0_L2C TOTAL     ACCESS:    3280009  HIT:     136179  MISS:    3143830
cpu0_L2C LOAD      ACCESS:    3234310  HIT:     101482  MISS:    3132828
cpu0_L2C RFO       ACCESS:      11951  HIT:       2663  MISS:       9288
cpu0_L2C PREFETCH  ACCESS:          0  HIT:          0  MISS:          0
cpu0_L2C WRITEBACK ACCESS:      27795  HIT:      27408  MISS:        387
cpu0_L2C TRANSLATION ACCESS:       5953  HIT:       4626  MISS:       1327
cpu0_L2C PREFETCH  REQUESTED:          0  ISSUED:          0  USEFUL:          0  USELESS:          0
cpu0_L2C AVERAGE MISS LATENCY: 133.772 cycles
LLC TOTAL     ACCESS:    3163831  HIT:     918147  MISS:    2245684
LLC LOAD      ACCESS:    3132828  HIT:     897222  MISS:    2235606
LLC RFO       ACCESS:       9287  HIT:       4212  MISS:       5075
LLC PREFETCH  ACCESS:          0  HIT:          0  MISS:          0
LLC WRITEBACK ACCESS:      20389  HIT:      15725  MISS:       4664
LLC TRANSLATION ACCESS:       1327  HIT:        988  MISS:        339
LLC PREFETCH  REQUESTED:          0  ISSUED:          0  USEFUL:          0  USELESS:          0
LLC AVERAGE MISS LATENCY: 157.877 cycles

DRAM Statistics
 CHANNEL 0
 RQ ROW_BUFFER_HIT:     543534  ROW_BUFFER_MISS:    1697484
 DBUS AVG_CONGESTED_CYCLE:    3.91785
 WQ ROW_BUFFER_HIT:       2748  ROW_BUFFER_MISS:       3985  FULL:          0


CPU 0 Branch Prediction Accuracy: 90.7444% MPKI: 27.9345 Average ROB Occupancy at Mispredict: 19.3405
Branch type MPKI
BRANCH_DIRECT_JUMP: 0.00034
BRANCH_INDIRECT: 0.0087
BRANCH_CONDITIONAL: 27.8577
BRANCH_DIRECT_CALL: 0.00024
BRANCH_INDIRECT_CALL: 0.02508
BRANCH_RETURN: 0.04245

