
*** ChampSim Multicore Out-of-Order Simulator ***

Warmup Instructions: 10000000
Simulation Instructions: 100000000
Number of CPUs: 1
Off-chip DRAM Size: 4 GiB Channels: 1 Width: 64-bit Data Rate: 3200 MT/s

VirtualMemory physical capacity: 8588881920 num_ppages: 2096895
VirtualMemory page size: 4096 log2_page_size: 12

CPU 0 runs /datasets/cs240c-wi22-a00-public/data/Assignment2/cactusADM_734B.trace.xz
CPU 0 Bimodal branch predictor
Basic BTB sets: 1024 ways: 8 indirect buffer size: 4096 RAS size: 64
Initialize Hawkeye state
Initialize SRRIP state
Heartbeat CPU 0 instructions: 10000002 cycles: 3647078 heartbeat IPC: 2.74192 cumulative IPC: 2.74192 (Simulation time: 0 hr 0 min 47 sec) 

Warmup complete CPU 0 instructions: 10000002 cycles: 3647078 (Simulation time: 0 hr 0 min 47 sec) 

Heartbeat CPU 0 instructions: 20000004 cycles: 13435733 heartbeat IPC: 1.02159 cumulative IPC: 1.02159 (Simulation time: 0 hr 2 min 15 sec) 
Heartbeat CPU 0 instructions: 30000001 cycles: 22628423 heartbeat IPC: 1.08782 cumulative IPC: 1.05367 (Simulation time: 0 hr 3 min 38 sec) 
Heartbeat CPU 0 instructions: 40000004 cycles: 31981962 heartbeat IPC: 1.06911 cumulative IPC: 1.05877 (Simulation time: 0 hr 5 min 3 sec) 
Heartbeat CPU 0 instructions: 50000000 cycles: 41062607 heartbeat IPC: 1.10124 cumulative IPC: 1.06907 (Simulation time: 0 hr 6 min 27 sec) 
Heartbeat CPU 0 instructions: 60000002 cycles: 47287943 heartbeat IPC: 1.60634 cumulative IPC: 1.14572 (Simulation time: 0 hr 7 min 40 sec) 
Heartbeat CPU 0 instructions: 70000003 cycles: 56097439 heartbeat IPC: 1.13514 cumulative IPC: 1.14394 (Simulation time: 0 hr 9 min 6 sec) 
Heartbeat CPU 0 instructions: 80000002 cycles: 64798751 heartbeat IPC: 1.14925 cumulative IPC: 1.14469 (Simulation time: 0 hr 10 min 30 sec) 
Heartbeat CPU 0 instructions: 90000000 cycles: 73659490 heartbeat IPC: 1.12857 cumulative IPC: 1.14265 (Simulation time: 0 hr 11 min 56 sec) 
Heartbeat CPU 0 instructions: 100000004 cycles: 79823257 heartbeat IPC: 1.62239 cumulative IPC: 1.18147 (Simulation time: 0 hr 13 min 4 sec) 
Heartbeat CPU 0 instructions: 110000001 cycles: 88394025 heartbeat IPC: 1.16676 cumulative IPC: 1.17998 (Simulation time: 0 hr 14 min 27 sec) 
Finished CPU 0 instructions: 100000004 cycles: 84746948 cumulative IPC: 1.17998 (Simulation time: 0 hr 14 min 27 sec) 

ChampSim completed all CPUs

Region of Interest Statistics

CPU 0 cumulative IPC: 1.17998 instructions: 100000004 cycles: 84746948
cpu0_DTLB TOTAL     ACCESS:   21670326  HIT:   19825420  MISS:    1844906
cpu0_DTLB LOAD      ACCESS:   17796971  HIT:   16540020  MISS:    1256951
cpu0_DTLB RFO       ACCESS:    3873355  HIT:    3285400  MISS:     587955
cpu0_DTLB PREFETCH  ACCESS:          0  HIT:          0  MISS:          0
cpu0_DTLB WRITEBACK ACCESS:          0  HIT:          0  MISS:          0
cpu0_DTLB TRANSLATION ACCESS:          0  HIT:          0  MISS:          0
cpu0_DTLB PREFETCH  REQUESTED:          0  ISSUED:          0  USEFUL:          0  USELESS:          0
cpu0_DTLB AVERAGE MISS LATENCY: 17.5068 cycles
cpu0_ITLB TOTAL     ACCESS:    1527675  HIT:    1527675  MISS:          0
cpu0_ITLB LOAD      ACCESS:    1527675  HIT:    1527675  MISS:          0
cpu0_ITLB RFO       ACCESS:          0  HIT:          0  MISS:          0
cpu0_ITLB PREFETCH  ACCESS:          0  HIT:          0  MISS:          0
cpu0_ITLB WRITEBACK ACCESS:          0  HIT:          0  MISS:          0
cpu0_ITLB TRANSLATION ACCESS:          0  HIT:          0  MISS:          0
cpu0_ITLB PREFETCH  REQUESTED:          0  ISSUED:          0  USEFUL:          0  USELESS:          0
cpu0_ITLB AVERAGE MISS LATENCY: -nan cycles
cpu0_L1I TOTAL     ACCESS:    7864749  HIT:    7864746  MISS:          3
cpu0_L1I LOAD      ACCESS:    7864749  HIT:    7864746  MISS:          3
cpu0_L1I RFO       ACCESS:          0  HIT:          0  MISS:          0
cpu0_L1I PREFETCH  ACCESS:          0  HIT:          0  MISS:          0
cpu0_L1I WRITEBACK ACCESS:          0  HIT:          0  MISS:          0
cpu0_L1I TRANSLATION ACCESS:          0  HIT:          0  MISS:          0
cpu0_L1I PREFETCH  REQUESTED:          0  ISSUED:          0  USEFUL:          0  USELESS:          0
cpu0_L1I AVERAGE MISS LATENCY: 792.333 cycles
cpu0_STLB TOTAL     ACCESS:    1844906  HIT:     892177  MISS:     952729
cpu0_STLB LOAD      ACCESS:    1256951  HIT:     641003  MISS:     615948
cpu0_STLB RFO       ACCESS:     587955  HIT:     251174  MISS:     336781
cpu0_STLB PREFETCH  ACCESS:          0  HIT:          0  MISS:          0
cpu0_STLB WRITEBACK ACCESS:          0  HIT:          0  MISS:          0
cpu0_STLB TRANSLATION ACCESS:          0  HIT:          0  MISS:          0
cpu0_STLB PREFETCH  REQUESTED:          0  ISSUED:          0  USEFUL:          0  USELESS:          0
cpu0_STLB AVERAGE MISS LATENCY: 16.35 cycles
cpu0_L1D TOTAL     ACCESS:   37588144  HIT:   36267936  MISS:    1320208
cpu0_L1D LOAD      ACCESS:   25664157  HIT:   24613446  MISS:    1050711
cpu0_L1D RFO       ACCESS:   10972232  HIT:   10708084  MISS:     264148
cpu0_L1D PREFETCH  ACCESS:          0  HIT:          0  MISS:          0
cpu0_L1D WRITEBACK ACCESS:          0  HIT:          0  MISS:          0
cpu0_L1D TRANSLATION ACCESS:     951755  HIT:     946406  MISS:       5349
cpu0_L1D PREFETCH  REQUESTED:          0  ISSUED:          0  USEFUL:          0  USELESS:          0
cpu0_L1D AVERAGE MISS LATENCY: 295.63 cycles
cpu0_L2C TOTAL     ACCESS:    1588168  HIT:     691765  MISS:     896403
cpu0_L2C LOAD      ACCESS:    1050714  HIT:     418903  MISS:     631811
cpu0_L2C RFO       ACCESS:     264148  HIT:          0  MISS:     264148
cpu0_L2C PREFETCH  ACCESS:          0  HIT:          0  MISS:          0
cpu0_L2C WRITEBACK ACCESS:     267957  HIT:     267758  MISS:        199
cpu0_L2C TRANSLATION ACCESS:       5349  HIT:       5104  MISS:        245
cpu0_L2C PREFETCH  REQUESTED:          0  ISSUED:          0  USEFUL:          0  USELESS:          0
cpu0_L2C AVERAGE MISS LATENCY: 419.181 cycles
LLC TOTAL     ACCESS:    1162863  HIT:     342661  MISS:     820202
LLC LOAD      ACCESS:     631811  HIT:     157022  MISS:     474789
LLC RFO       ACCESS:     264148  HIT:      78143  MISS:     186005
LLC PREFETCH  ACCESS:          0  HIT:          0  MISS:          0
LLC WRITEBACK ACCESS:     266659  HIT:     107484  MISS:     159175
LLC TRANSLATION ACCESS:        245  HIT:         12  MISS:        233
LLC PREFETCH  REQUESTED:          0  ISSUED:          0  USEFUL:          0  USELESS:          0
LLC AVERAGE MISS LATENCY: 435.178 cycles
Ship++ misses: 22524
Hawkeye misses: 22933
Ship++ used: 624915
Hawkeye used: 229317

DRAM Statistics
 CHANNEL 0
 RQ ROW_BUFFER_HIT:       6386  ROW_BUFFER_MISS:     654622
 DBUS AVG_CONGESTED_CYCLE:    3.97848
 WQ ROW_BUFFER_HIT:      18447  ROW_BUFFER_MISS:     206583  FULL:        370


CPU 0 Branch Prediction Accuracy: 97.7528% MPKI: 0.04677 Average ROB Occupancy at Mispredict: 283.866
Branch type MPKI
BRANCH_DIRECT_JUMP: 0
BRANCH_INDIRECT: 0
BRANCH_CONDITIONAL: 0.04677
BRANCH_DIRECT_CALL: 0
BRANCH_INDIRECT_CALL: 0
BRANCH_RETURN: 0

