
*** ChampSim Multicore Out-of-Order Simulator ***

Warmup Instructions: 10000000
Simulation Instructions: 100000000
Number of CPUs: 1
Off-chip DRAM Size: 4 GiB Channels: 1 Width: 64-bit Data Rate: 3200 MT/s

VirtualMemory physical capacity: 8588881920 num_ppages: 2096895
VirtualMemory page size: 4096 log2_page_size: 12

CPU 0 runs /datasets/cs240c-wi22-a00-public/data/Assignment2/cactusADM_1495B.trace.xz
CPU 0 Bimodal branch predictor
Basic BTB sets: 1024 ways: 8 indirect buffer size: 4096 RAS size: 64
Initialize Hawkeye state
Initialize SRRIP state
Heartbeat CPU 0 instructions: 10000001 cycles: 3702097 heartbeat IPC: 2.70117 cumulative IPC: 2.70117 (Simulation time: 0 hr 0 min 51 sec) 

Warmup complete CPU 0 instructions: 10000001 cycles: 3702097 (Simulation time: 0 hr 0 min 51 sec) 

Heartbeat CPU 0 instructions: 20000001 cycles: 10988539 heartbeat IPC: 1.37241 cumulative IPC: 1.37241 (Simulation time: 0 hr 2 min 6 sec) 
Heartbeat CPU 0 instructions: 30000003 cycles: 19790251 heartbeat IPC: 1.13614 cumulative IPC: 1.24315 (Simulation time: 0 hr 3 min 29 sec) 
Heartbeat CPU 0 instructions: 40000001 cycles: 28845559 heartbeat IPC: 1.10432 cumulative IPC: 1.19315 (Simulation time: 0 hr 4 min 51 sec) 
Heartbeat CPU 0 instructions: 50000000 cycles: 37385890 heartbeat IPC: 1.17091 cumulative IPC: 1.18751 (Simulation time: 0 hr 6 min 11 sec) 
Heartbeat CPU 0 instructions: 60000002 cycles: 44365808 heartbeat IPC: 1.43268 cumulative IPC: 1.2296 (Simulation time: 0 hr 7 min 24 sec) 
Heartbeat CPU 0 instructions: 70000000 cycles: 52180082 heartbeat IPC: 1.27971 cumulative IPC: 1.23768 (Simulation time: 0 hr 8 min 41 sec) 
Heartbeat CPU 0 instructions: 80000001 cycles: 61063369 heartbeat IPC: 1.12571 cumulative IPC: 1.22034 (Simulation time: 0 hr 10 min 5 sec) 
Heartbeat CPU 0 instructions: 90000002 cycles: 69903822 heartbeat IPC: 1.13116 cumulative IPC: 1.20843 (Simulation time: 0 hr 11 min 25 sec) 
Heartbeat CPU 0 instructions: 100000003 cycles: 78627119 heartbeat IPC: 1.14636 cumulative IPC: 1.2012 (Simulation time: 0 hr 12 min 45 sec) 
Heartbeat CPU 0 instructions: 110000004 cycles: 84625550 heartbeat IPC: 1.6671 cumulative IPC: 1.23574 (Simulation time: 0 hr 13 min 54 sec) 
Finished CPU 0 instructions: 100000003 cycles: 80923453 cumulative IPC: 1.23574 (Simulation time: 0 hr 13 min 54 sec) 

ChampSim completed all CPUs

Region of Interest Statistics

CPU 0 cumulative IPC: 1.23574 instructions: 100000003 cycles: 80923453
cpu0_DTLB TOTAL     ACCESS:   21514340  HIT:   19741156  MISS:    1773184
cpu0_DTLB LOAD      ACCESS:   17697166  HIT:   16487581  MISS:    1209585
cpu0_DTLB RFO       ACCESS:    3817174  HIT:    3253575  MISS:     563599
cpu0_DTLB PREFETCH  ACCESS:          0  HIT:          0  MISS:          0
cpu0_DTLB WRITEBACK ACCESS:          0  HIT:          0  MISS:          0
cpu0_DTLB TRANSLATION ACCESS:          0  HIT:          0  MISS:          0
cpu0_DTLB PREFETCH  REQUESTED:          0  ISSUED:          0  USEFUL:          0  USELESS:          0
cpu0_DTLB AVERAGE MISS LATENCY: 16.3337 cycles
cpu0_ITLB TOTAL     ACCESS:    1611732  HIT:    1611732  MISS:          0
cpu0_ITLB LOAD      ACCESS:    1611732  HIT:    1611732  MISS:          0
cpu0_ITLB RFO       ACCESS:          0  HIT:          0  MISS:          0
cpu0_ITLB PREFETCH  ACCESS:          0  HIT:          0  MISS:          0
cpu0_ITLB WRITEBACK ACCESS:          0  HIT:          0  MISS:          0
cpu0_ITLB TRANSLATION ACCESS:          0  HIT:          0  MISS:          0
cpu0_ITLB PREFETCH  REQUESTED:          0  ISSUED:          0  USEFUL:          0  USELESS:          0
cpu0_ITLB AVERAGE MISS LATENCY: -nan cycles
cpu0_L1I TOTAL     ACCESS:    8434491  HIT:    8434491  MISS:          0
cpu0_L1I LOAD      ACCESS:    8434491  HIT:    8434491  MISS:          0
cpu0_L1I RFO       ACCESS:          0  HIT:          0  MISS:          0
cpu0_L1I PREFETCH  ACCESS:          0  HIT:          0  MISS:          0
cpu0_L1I WRITEBACK ACCESS:          0  HIT:          0  MISS:          0
cpu0_L1I TRANSLATION ACCESS:          0  HIT:          0  MISS:          0
cpu0_L1I PREFETCH  REQUESTED:          0  ISSUED:          0  USEFUL:          0  USELESS:          0
cpu0_L1I AVERAGE MISS LATENCY: -nan cycles
cpu0_STLB TOTAL     ACCESS:    1773184  HIT:     906353  MISS:     866831
cpu0_STLB LOAD      ACCESS:    1209585  HIT:     648524  MISS:     561061
cpu0_STLB RFO       ACCESS:     563599  HIT:     257829  MISS:     305770
cpu0_STLB PREFETCH  ACCESS:          0  HIT:          0  MISS:          0
cpu0_STLB WRITEBACK ACCESS:          0  HIT:          0  MISS:          0
cpu0_STLB TRANSLATION ACCESS:          0  HIT:          0  MISS:          0
cpu0_STLB PREFETCH  REQUESTED:          0  ISSUED:          0  USEFUL:          0  USELESS:          0
cpu0_STLB AVERAGE MISS LATENCY: 14.8789 cycles
cpu0_L1D TOTAL     ACCESS:   37520944  HIT:   36232777  MISS:    1288167
cpu0_L1D LOAD      ACCESS:   25713040  HIT:   24677055  MISS:    1035985
cpu0_L1D RFO       ACCESS:   10941750  HIT:   10696518  MISS:     245232
cpu0_L1D PREFETCH  ACCESS:          0  HIT:          0  MISS:          0
cpu0_L1D WRITEBACK ACCESS:          0  HIT:          0  MISS:          0
cpu0_L1D TRANSLATION ACCESS:     866154  HIT:     859204  MISS:       6950
cpu0_L1D PREFETCH  REQUESTED:          0  ISSUED:          0  USEFUL:          0  USELESS:          0
cpu0_L1D AVERAGE MISS LATENCY: 272.117 cycles
cpu0_L2C TOTAL     ACCESS:    1536949  HIT:     676795  MISS:     860154
cpu0_L2C LOAD      ACCESS:    1035985  HIT:     421566  MISS:     614419
cpu0_L2C RFO       ACCESS:     245232  HIT:          0  MISS:     245232
cpu0_L2C PREFETCH  ACCESS:          0  HIT:          0  MISS:          0
cpu0_L2C WRITEBACK ACCESS:     248782  HIT:     248593  MISS:        189
cpu0_L2C TRANSLATION ACCESS:       6950  HIT:       6636  MISS:        314
cpu0_L2C PREFETCH  REQUESTED:          0  ISSUED:          0  USEFUL:          0  USELESS:          0
cpu0_L2C AVERAGE MISS LATENCY: 391.028 cycles
LLC TOTAL     ACCESS:    1105573  HIT:     327955  MISS:     777618
LLC LOAD      ACCESS:     614419  HIT:     159716  MISS:     454703
LLC RFO       ACCESS:     245232  HIT:      74547  MISS:     170685
LLC PREFETCH  ACCESS:          0  HIT:          0  MISS:          0
LLC WRITEBACK ACCESS:     245608  HIT:      93669  MISS:     151939
LLC TRANSLATION ACCESS:        314  HIT:         23  MISS:        291
LLC PREFETCH  REQUESTED:          0  ISSUED:          0  USEFUL:          0  USELESS:          0
LLC AVERAGE MISS LATENCY: 409.307 cycles
Ship++ misses: 22417
Hawkeye misses: 22699
Ship++ used: 337210
Hawkeye used: 515486

DRAM Statistics
 CHANNEL 0
 RQ ROW_BUFFER_HIT:       5734  ROW_BUFFER_MISS:     619932
 DBUS AVG_CONGESTED_CYCLE:    3.97585
 WQ ROW_BUFFER_HIT:      17393  ROW_BUFFER_MISS:     199669  FULL:        139


CPU 0 Branch Prediction Accuracy: 97.8411% MPKI: 0.04284 Average ROB Occupancy at Mispredict: 285.558
Branch type MPKI
BRANCH_DIRECT_JUMP: 0
BRANCH_INDIRECT: 0
BRANCH_CONDITIONAL: 0.04284
BRANCH_DIRECT_CALL: 0
BRANCH_INDIRECT_CALL: 0
BRANCH_RETURN: 0

