
*** ChampSim Multicore Out-of-Order Simulator ***

Warmup Instructions: 10000000
Simulation Instructions: 100000000
Number of CPUs: 1
Off-chip DRAM Size: 4 GiB Channels: 1 Width: 64-bit Data Rate: 3200 MT/s

VirtualMemory physical capacity: 8588881920 num_ppages: 2096895
VirtualMemory page size: 4096 log2_page_size: 12

CPU 0 runs /datasets/cs240c-wi22-a00-public/data/Assignment2/GemsFDTD_109B.trace.xz
CPU 0 Bimodal branch predictor
Basic BTB sets: 1024 ways: 8 indirect buffer size: 4096 RAS size: 64
Initialize Hawkeye state
Initialize SRRIP state
Heartbeat CPU 0 instructions: 10000004 cycles: 4294006 heartbeat IPC: 2.32883 cumulative IPC: 2.32883 (Simulation time: 0 hr 0 min 55 sec) 

Warmup complete CPU 0 instructions: 10000004 cycles: 4294006 (Simulation time: 0 hr 0 min 55 sec) 

Heartbeat CPU 0 instructions: 20000000 cycles: 35014977 heartbeat IPC: 0.32551 cumulative IPC: 0.32551 (Simulation time: 0 hr 4 min 7 sec) 
Heartbeat CPU 0 instructions: 30000004 cycles: 56916042 heartbeat IPC: 0.456599 cumulative IPC: 0.380069 (Simulation time: 0 hr 6 min 4 sec) 
Heartbeat CPU 0 instructions: 40000004 cycles: 63131699 heartbeat IPC: 1.60884 cumulative IPC: 0.509877 (Simulation time: 0 hr 6 min 48 sec) 
Heartbeat CPU 0 instructions: 50000002 cycles: 83970859 heartbeat IPC: 0.479866 cumulative IPC: 0.502028 (Simulation time: 0 hr 8 min 42 sec) 
Heartbeat CPU 0 instructions: 60000002 cycles: 124309632 heartbeat IPC: 0.2479 cumulative IPC: 0.416612 (Simulation time: 0 hr 12 min 28 sec) 
Heartbeat CPU 0 instructions: 70000002 cycles: 164124721 heartbeat IPC: 0.251161 cumulative IPC: 0.375397 (Simulation time: 0 hr 16 min 10 sec) 
Heartbeat CPU 0 instructions: 80000003 cycles: 203904708 heartbeat IPC: 0.251383 cumulative IPC: 0.350683 (Simulation time: 0 hr 19 min 56 sec) 
Heartbeat CPU 0 instructions: 90000000 cycles: 243624531 heartbeat IPC: 0.251763 cumulative IPC: 0.334266 (Simulation time: 0 hr 23 min 40 sec) 
Heartbeat CPU 0 instructions: 100000003 cycles: 283338443 heartbeat IPC: 0.251801 cumulative IPC: 0.322529 (Simulation time: 0 hr 27 min 22 sec) 
Heartbeat CPU 0 instructions: 110000004 cycles: 323099514 heartbeat IPC: 0.251502 cumulative IPC: 0.313671 (Simulation time: 0 hr 31 min 9 sec) 
Finished CPU 0 instructions: 100000000 cycles: 318805508 cumulative IPC: 0.313671 (Simulation time: 0 hr 31 min 9 sec) 

ChampSim completed all CPUs

Region of Interest Statistics

CPU 0 cumulative IPC: 0.313671 instructions: 100000000 cycles: 318805508
cpu0_DTLB TOTAL     ACCESS:   26449749  HIT:   26250326  MISS:     199423
cpu0_DTLB LOAD      ACCESS:   21018769  HIT:   20821347  MISS:     197422
cpu0_DTLB RFO       ACCESS:    5430980  HIT:    5428979  MISS:       2001
cpu0_DTLB PREFETCH  ACCESS:          0  HIT:          0  MISS:          0
cpu0_DTLB WRITEBACK ACCESS:          0  HIT:          0  MISS:          0
cpu0_DTLB TRANSLATION ACCESS:          0  HIT:          0  MISS:          0
cpu0_DTLB PREFETCH  REQUESTED:          0  ISSUED:          0  USEFUL:          0  USELESS:          0
cpu0_DTLB AVERAGE MISS LATENCY: 428.805 cycles
cpu0_ITLB TOTAL     ACCESS:    2032547  HIT:    2032529  MISS:         18
cpu0_ITLB LOAD      ACCESS:    2032547  HIT:    2032529  MISS:         18
cpu0_ITLB RFO       ACCESS:          0  HIT:          0  MISS:          0
cpu0_ITLB PREFETCH  ACCESS:          0  HIT:          0  MISS:          0
cpu0_ITLB WRITEBACK ACCESS:          0  HIT:          0  MISS:          0
cpu0_ITLB TRANSLATION ACCESS:          0  HIT:          0  MISS:          0
cpu0_ITLB PREFETCH  REQUESTED:          0  ISSUED:          0  USEFUL:          0  USELESS:          0
cpu0_ITLB AVERAGE MISS LATENCY: 255.056 cycles
cpu0_L1I TOTAL     ACCESS:    1722897  HIT:    1722467  MISS:        430
cpu0_L1I LOAD      ACCESS:    1722897  HIT:    1722467  MISS:        430
cpu0_L1I RFO       ACCESS:          0  HIT:          0  MISS:          0
cpu0_L1I PREFETCH  ACCESS:          0  HIT:          0  MISS:          0
cpu0_L1I WRITEBACK ACCESS:          0  HIT:          0  MISS:          0
cpu0_L1I TRANSLATION ACCESS:          0  HIT:          0  MISS:          0
cpu0_L1I PREFETCH  REQUESTED:          0  ISSUED:          0  USEFUL:          0  USELESS:          0
cpu0_L1I AVERAGE MISS LATENCY: 353.784 cycles
cpu0_STLB TOTAL     ACCESS:     199441  HIT:      33980  MISS:     165461
cpu0_STLB LOAD      ACCESS:     197440  HIT:      32673  MISS:     164767
cpu0_STLB RFO       ACCESS:       2001  HIT:       1307  MISS:        694
cpu0_STLB PREFETCH  ACCESS:          0  HIT:          0  MISS:          0
cpu0_STLB WRITEBACK ACCESS:          0  HIT:          0  MISS:          0
cpu0_STLB TRANSLATION ACCESS:          0  HIT:          0  MISS:          0
cpu0_STLB PREFETCH  REQUESTED:          0  ISSUED:          0  USEFUL:          0  USELESS:          0
cpu0_STLB AVERAGE MISS LATENCY: 505.883 cycles
cpu0_L1D TOTAL     ACCESS:   22875586  HIT:   19645267  MISS:    3230319
cpu0_L1D LOAD      ACCESS:   13776785  HIT:   10676764  MISS:    3100021
cpu0_L1D RFO       ACCESS:    9008723  HIT:    8881111  MISS:     127612
cpu0_L1D PREFETCH  ACCESS:          0  HIT:          0  MISS:          0
cpu0_L1D WRITEBACK ACCESS:          0  HIT:          0  MISS:          0
cpu0_L1D TRANSLATION ACCESS:      90078  HIT:      87392  MISS:       2686
cpu0_L1D PREFETCH  REQUESTED:          0  ISSUED:          0  USEFUL:          0  USELESS:          0
cpu0_L1D AVERAGE MISS LATENCY: 722.437 cycles
cpu0_L2C TOTAL     ACCESS:    4595581  HIT:    1423649  MISS:    3171932
cpu0_L2C LOAD      ACCESS:    3100451  HIT:      41297  MISS:    3059154
cpu0_L2C RFO       ACCESS:     127612  HIT:      15128  MISS:     112484
cpu0_L2C PREFETCH  ACCESS:          0  HIT:          0  MISS:          0
cpu0_L2C WRITEBACK ACCESS:    1364832  HIT:    1364735  MISS:         97
cpu0_L2C TRANSLATION ACCESS:       2686  HIT:       2489  MISS:        197
cpu0_L2C PREFETCH  REQUESTED:          0  ISSUED:          0  USEFUL:          0  USELESS:          0
cpu0_L2C AVERAGE MISS LATENCY: 724.564 cycles
LLC TOTAL     ACCESS:    4523119  HIT:    1079758  MISS:    3443361
LLC LOAD      ACCESS:    3059150  HIT:     705585  MISS:    2353565
LLC RFO       ACCESS:     112484  HIT:      89612  MISS:      22872
LLC PREFETCH  ACCESS:          0  HIT:          0  MISS:          0
LLC WRITEBACK ACCESS:    1351288  HIT:     284469  MISS:    1066819
LLC TRANSLATION ACCESS:        197  HIT:         92  MISS:        105
LLC PREFETCH  REQUESTED:          0  ISSUED:          0  USEFUL:          0  USELESS:          0
LLC AVERAGE MISS LATENCY: 648.1 cycles
Ship++ misses: 83085
Hawkeye misses: 81263
Ship++ used: 301470
Hawkeye used: 3472640

DRAM Statistics
 CHANNEL 0
 RQ ROW_BUFFER_HIT:      46447  ROW_BUFFER_MISS:    2330063
 DBUS AVG_CONGESTED_CYCLE:     3.9962
 WQ ROW_BUFFER_HIT:      21288  ROW_BUFFER_MISS:    1243906  FULL:      31067


CPU 0 Branch Prediction Accuracy: 98.929% MPKI: 0.55515 Average ROB Occupancy at Mispredict: 267.896
Branch type MPKI
BRANCH_DIRECT_JUMP: 0.00045
BRANCH_INDIRECT: 1e-05
BRANCH_CONDITIONAL: 0.5534
BRANCH_DIRECT_CALL: 0.00065
BRANCH_INDIRECT_CALL: 0
BRANCH_RETURN: 0.00064

