
*** ChampSim Multicore Out-of-Order Simulator ***

Warmup Instructions: 10000000
Simulation Instructions: 100000000
Number of CPUs: 1
Off-chip DRAM Size: 4 GiB Channels: 1 Width: 64-bit Data Rate: 3200 MT/s

VirtualMemory physical capacity: 8588881920 num_ppages: 2096895
VirtualMemory page size: 4096 log2_page_size: 12

CPU 0 runs /datasets/cs240c-wi22-a00-public/data/Assignment2/leslie3d_1116B.trace.xz
CPU 0 Bimodal branch predictor
Basic BTB sets: 1024 ways: 8 indirect buffer size: 4096 RAS size: 64
Initialize Hawkeye state
Initialize SRRIP state
Heartbeat CPU 0 instructions: 10000000 cycles: 3692443 heartbeat IPC: 2.70823 cumulative IPC: 2.70823 (Simulation time: 0 hr 0 min 49 sec) 

Warmup complete CPU 0 instructions: 10000005 cycles: 3692444 (Simulation time: 0 hr 0 min 49 sec) 

Heartbeat CPU 0 instructions: 20000000 cycles: 12763621 heartbeat IPC: 1.10239 cumulative IPC: 1.10239 (Simulation time: 0 hr 2 min 11 sec) 
Heartbeat CPU 0 instructions: 30000004 cycles: 21857030 heartbeat IPC: 1.0997 cumulative IPC: 1.10104 (Simulation time: 0 hr 3 min 35 sec) 
Heartbeat CPU 0 instructions: 40000001 cycles: 33506503 heartbeat IPC: 0.858408 cumulative IPC: 1.00624 (Simulation time: 0 hr 5 min 9 sec) 
Heartbeat CPU 0 instructions: 50000000 cycles: 55645708 heartbeat IPC: 0.451687 cumulative IPC: 0.769923 (Simulation time: 0 hr 7 min 24 sec) 
Heartbeat CPU 0 instructions: 60000001 cycles: 109491970 heartbeat IPC: 0.185714 cumulative IPC: 0.472592 (Simulation time: 0 hr 11 min 41 sec) 
Heartbeat CPU 0 instructions: 70000000 cycles: 124385485 heartbeat IPC: 0.671433 cumulative IPC: 0.497129 (Simulation time: 0 hr 13 min 30 sec) 
Heartbeat CPU 0 instructions: 80000001 cycles: 137216705 heartbeat IPC: 0.779349 cumulative IPC: 0.524249 (Simulation time: 0 hr 15 min 13 sec) 
Heartbeat CPU 0 instructions: 90000004 cycles: 150393568 heartbeat IPC: 0.758906 cumulative IPC: 0.545326 (Simulation time: 0 hr 16 min 57 sec) 
Heartbeat CPU 0 instructions: 100000002 cycles: 163550894 heartbeat IPC: 0.760033 cumulative IPC: 0.562998 (Simulation time: 0 hr 18 min 40 sec) 
Heartbeat CPU 0 instructions: 110000001 cycles: 180960108 heartbeat IPC: 0.574408 cumulative IPC: 0.564119 (Simulation time: 0 hr 20 min 26 sec) 
Finished CPU 0 instructions: 100000001 cycles: 177267665 cumulative IPC: 0.564119 (Simulation time: 0 hr 20 min 26 sec) 

ChampSim completed all CPUs

Region of Interest Statistics

CPU 0 cumulative IPC: 0.564119 instructions: 100000001 cycles: 177267665
cpu0_DTLB TOTAL     ACCESS:   25739429  HIT:   25673680  MISS:      65749
cpu0_DTLB LOAD      ACCESS:   21117975  HIT:   21066281  MISS:      51694
cpu0_DTLB RFO       ACCESS:    4621454  HIT:    4607399  MISS:      14055
cpu0_DTLB PREFETCH  ACCESS:          0  HIT:          0  MISS:          0
cpu0_DTLB WRITEBACK ACCESS:          0  HIT:          0  MISS:          0
cpu0_DTLB TRANSLATION ACCESS:          0  HIT:          0  MISS:          0
cpu0_DTLB PREFETCH  REQUESTED:          0  ISSUED:          0  USEFUL:          0  USELESS:          0
cpu0_DTLB AVERAGE MISS LATENCY: 86.1377 cycles
cpu0_ITLB TOTAL     ACCESS:    2856027  HIT:    2856009  MISS:         18
cpu0_ITLB LOAD      ACCESS:    2856027  HIT:    2856009  MISS:         18
cpu0_ITLB RFO       ACCESS:          0  HIT:          0  MISS:          0
cpu0_ITLB PREFETCH  ACCESS:          0  HIT:          0  MISS:          0
cpu0_ITLB WRITEBACK ACCESS:          0  HIT:          0  MISS:          0
cpu0_ITLB TRANSLATION ACCESS:          0  HIT:          0  MISS:          0
cpu0_ITLB PREFETCH  REQUESTED:          0  ISSUED:          0  USEFUL:          0  USELESS:          0
cpu0_ITLB AVERAGE MISS LATENCY: 296.778 cycles
cpu0_L1I TOTAL     ACCESS:    1776176  HIT:    1775704  MISS:        472
cpu0_L1I LOAD      ACCESS:    1776176  HIT:    1775704  MISS:        472
cpu0_L1I RFO       ACCESS:          0  HIT:          0  MISS:          0
cpu0_L1I PREFETCH  ACCESS:          0  HIT:          0  MISS:          0
cpu0_L1I WRITEBACK ACCESS:          0  HIT:          0  MISS:          0
cpu0_L1I TRANSLATION ACCESS:          0  HIT:          0  MISS:          0
cpu0_L1I PREFETCH  REQUESTED:          0  ISSUED:          0  USEFUL:          0  USELESS:          0
cpu0_L1I AVERAGE MISS LATENCY: 356.089 cycles
cpu0_STLB TOTAL     ACCESS:      65767  HIT:      34143  MISS:      31624
cpu0_STLB LOAD      ACCESS:      51712  HIT:      28246  MISS:      23466
cpu0_STLB RFO       ACCESS:      14055  HIT:       5897  MISS:       8158
cpu0_STLB PREFETCH  ACCESS:          0  HIT:          0  MISS:          0
cpu0_STLB WRITEBACK ACCESS:          0  HIT:          0  MISS:          0
cpu0_STLB TRANSLATION ACCESS:          0  HIT:          0  MISS:          0
cpu0_STLB PREFETCH  REQUESTED:          0  ISSUED:          0  USEFUL:          0  USELESS:          0
cpu0_STLB AVERAGE MISS LATENCY: 160.526 cycles
cpu0_L1D TOTAL     ACCESS:   24551881  HIT:   21141700  MISS:    3410181
cpu0_L1D LOAD      ACCESS:   16399477  HIT:   13782306  MISS:    2617171
cpu0_L1D RFO       ACCESS:    8123069  HIT:    7333697  MISS:     789372
cpu0_L1D PREFETCH  ACCESS:          0  HIT:          0  MISS:          0
cpu0_L1D WRITEBACK ACCESS:          0  HIT:          0  MISS:          0
cpu0_L1D TRANSLATION ACCESS:      29335  HIT:      25697  MISS:       3638
cpu0_L1D PREFETCH  REQUESTED:          0  ISSUED:          0  USEFUL:          0  USELESS:          0
cpu0_L1D AVERAGE MISS LATENCY: 482.942 cycles
cpu0_L2C TOTAL     ACCESS:    4455041  HIT:    1718428  MISS:    2736613
cpu0_L2C LOAD      ACCESS:    2617595  HIT:     507732  MISS:    2109863
cpu0_L2C RFO       ACCESS:     789282  HIT:     162805  MISS:     626477
cpu0_L2C PREFETCH  ACCESS:          0  HIT:          0  MISS:          0
cpu0_L2C WRITEBACK ACCESS:    1044526  HIT:    1044351  MISS:        175
cpu0_L2C TRANSLATION ACCESS:       3638  HIT:       3540  MISS:         98
cpu0_L2C PREFETCH  REQUESTED:          0  ISSUED:          0  USEFUL:          0  USELESS:          0
cpu0_L2C AVERAGE MISS LATENCY: 588.132 cycles
LLC TOTAL     ACCESS:    3497154  HIT:     776810  MISS:    2720344
LLC LOAD      ACCESS:    2109863  HIT:     481003  MISS:    1628860
LLC RFO       ACCESS:     626477  HIT:     102902  MISS:     523575
LLC PREFETCH  ACCESS:          0  HIT:          0  MISS:          0
LLC WRITEBACK ACCESS:     760716  HIT:     192891  MISS:     567825
LLC TRANSLATION ACCESS:         98  HIT:         14  MISS:         84
LLC PREFETCH  REQUESTED:          0  ISSUED:          0  USEFUL:          0  USELESS:          0
LLC AVERAGE MISS LATENCY: 570.477 cycles
Ship++ misses: 72090
Hawkeye misses: 71375
Ship++ used: 579268
Hawkeye used: 2295911

DRAM Statistics
 CHANNEL 0
 RQ ROW_BUFFER_HIT:     210632  ROW_BUFFER_MISS:    1941501
 DBUS AVG_CONGESTED_CYCLE:     3.9605
 WQ ROW_BUFFER_HIT:      62225  ROW_BUFFER_MISS:     614115  FULL:      30708


CPU 0 Branch Prediction Accuracy: 96.8713% MPKI: 1.55303 Average ROB Occupancy at Mispredict: 298.206
Branch type MPKI
BRANCH_DIRECT_JUMP: 0.00018
BRANCH_INDIRECT: 0
BRANCH_CONDITIONAL: 1.55065
BRANCH_DIRECT_CALL: 0.00113
BRANCH_INDIRECT_CALL: 0
BRANCH_RETURN: 0.00107

