
*** ChampSim Multicore Out-of-Order Simulator ***

Warmup Instructions: 10000000
Simulation Instructions: 100000000
Number of CPUs: 1
Off-chip DRAM Size: 4 GiB Channels: 1 Width: 64-bit Data Rate: 3200 MT/s

VirtualMemory physical capacity: 8588881920 num_ppages: 2096895
VirtualMemory page size: 4096 log2_page_size: 12

CPU 0 runs /datasets/cs240c-wi22-a00-public/data/Assignment2/soplex_205B.trace.xz
CPU 0 Bimodal branch predictor
Basic BTB sets: 1024 ways: 8 indirect buffer size: 4096 RAS size: 64
Initialize Hawkeye state
Initialize SRRIP state
Heartbeat CPU 0 instructions: 10000002 cycles: 2865168 heartbeat IPC: 3.4902 cumulative IPC: 3.4902 (Simulation time: 0 hr 0 min 22 sec) 

Warmup complete CPU 0 instructions: 10000002 cycles: 2865168 (Simulation time: 0 hr 0 min 22 sec) 

Heartbeat CPU 0 instructions: 20000004 cycles: 46778643 heartbeat IPC: 0.227721 cumulative IPC: 0.227721 (Simulation time: 0 hr 2 min 20 sec) 
Heartbeat CPU 0 instructions: 30000004 cycles: 82495437 heartbeat IPC: 0.27998 cumulative IPC: 0.251161 (Simulation time: 0 hr 3 min 25 sec) 
Heartbeat CPU 0 instructions: 40000004 cycles: 110958564 heartbeat IPC: 0.351332 cumulative IPC: 0.277538 (Simulation time: 0 hr 4 min 32 sec) 
Heartbeat CPU 0 instructions: 50000001 cycles: 142063930 heartbeat IPC: 0.321488 cumulative IPC: 0.287359 (Simulation time: 0 hr 5 min 42 sec) 
Heartbeat CPU 0 instructions: 60000000 cycles: 168730196 heartbeat IPC: 0.375006 cumulative IPC: 0.30145 (Simulation time: 0 hr 6 min 43 sec) 
Heartbeat CPU 0 instructions: 70000000 cycles: 198854645 heartbeat IPC: 0.331956 cumulative IPC: 0.306139 (Simulation time: 0 hr 7 min 56 sec) 
Heartbeat CPU 0 instructions: 80000003 cycles: 226833831 heartbeat IPC: 0.357409 cumulative IPC: 0.312544 (Simulation time: 0 hr 8 min 56 sec) 
Heartbeat CPU 0 instructions: 90000000 cycles: 258002738 heartbeat IPC: 0.320832 cumulative IPC: 0.313556 (Simulation time: 0 hr 10 min 9 sec) 
Heartbeat CPU 0 instructions: 100000002 cycles: 284639598 heartbeat IPC: 0.37542 cumulative IPC: 0.319404 (Simulation time: 0 hr 11 min 7 sec) 
Heartbeat CPU 0 instructions: 110000000 cycles: 337056676 heartbeat IPC: 0.190777 cumulative IPC: 0.29923 (Simulation time: 0 hr 12 min 57 sec) 
Finished CPU 0 instructions: 100000003 cycles: 334191509 cumulative IPC: 0.29923 (Simulation time: 0 hr 12 min 57 sec) 

ChampSim completed all CPUs

Region of Interest Statistics

CPU 0 cumulative IPC: 0.29923 instructions: 100000003 cycles: 334191509
cpu0_DTLB TOTAL     ACCESS:   22253314  HIT:   21290969  MISS:     962345
cpu0_DTLB LOAD      ACCESS:   16516294  HIT:   15775382  MISS:     740912
cpu0_DTLB RFO       ACCESS:    5737020  HIT:    5515587  MISS:     221433
cpu0_DTLB PREFETCH  ACCESS:          0  HIT:          0  MISS:          0
cpu0_DTLB WRITEBACK ACCESS:          0  HIT:          0  MISS:          0
cpu0_DTLB TRANSLATION ACCESS:          0  HIT:          0  MISS:          0
cpu0_DTLB PREFETCH  REQUESTED:          0  ISSUED:          0  USEFUL:          0  USELESS:          0
cpu0_DTLB AVERAGE MISS LATENCY: 15.7906 cycles
cpu0_ITLB TOTAL     ACCESS:    7974670  HIT:    7974653  MISS:         17
cpu0_ITLB LOAD      ACCESS:    7974670  HIT:    7974653  MISS:         17
cpu0_ITLB RFO       ACCESS:          0  HIT:          0  MISS:          0
cpu0_ITLB PREFETCH  ACCESS:          0  HIT:          0  MISS:          0
cpu0_ITLB WRITEBACK ACCESS:          0  HIT:          0  MISS:          0
cpu0_ITLB TRANSLATION ACCESS:          0  HIT:          0  MISS:          0
cpu0_ITLB PREFETCH  REQUESTED:          0  ISSUED:          0  USEFUL:          0  USELESS:          0
cpu0_ITLB AVERAGE MISS LATENCY: 383.353 cycles
cpu0_L1I TOTAL     ACCESS:     823376  HIT:     822603  MISS:        773
cpu0_L1I LOAD      ACCESS:     823376  HIT:     822603  MISS:        773
cpu0_L1I RFO       ACCESS:          0  HIT:          0  MISS:          0
cpu0_L1I PREFETCH  ACCESS:          0  HIT:          0  MISS:          0
cpu0_L1I WRITEBACK ACCESS:          0  HIT:          0  MISS:          0
cpu0_L1I TRANSLATION ACCESS:          0  HIT:          0  MISS:          0
cpu0_L1I PREFETCH  REQUESTED:          0  ISSUED:          0  USEFUL:          0  USELESS:          0
cpu0_L1I AVERAGE MISS LATENCY: 328.234 cycles
cpu0_STLB TOTAL     ACCESS:     962362  HIT:     806800  MISS:     155562
cpu0_STLB LOAD      ACCESS:     740929  HIT:     596196  MISS:     144733
cpu0_STLB RFO       ACCESS:     221433  HIT:     210604  MISS:      10829
cpu0_STLB PREFETCH  ACCESS:          0  HIT:          0  MISS:          0
cpu0_STLB WRITEBACK ACCESS:          0  HIT:          0  MISS:          0
cpu0_STLB TRANSLATION ACCESS:          0  HIT:          0  MISS:          0
cpu0_STLB PREFETCH  REQUESTED:          0  ISSUED:          0  USEFUL:          0  USELESS:          0
cpu0_STLB AVERAGE MISS LATENCY: 41.117 cycles
cpu0_L1D TOTAL     ACCESS:   19227848  HIT:   13437254  MISS:    5790594
cpu0_L1D LOAD      ACCESS:   12657613  HIT:    7822993  MISS:    4834620
cpu0_L1D RFO       ACCESS:    6418566  HIT:    5468227  MISS:     950339
cpu0_L1D PREFETCH  ACCESS:          0  HIT:          0  MISS:          0
cpu0_L1D WRITEBACK ACCESS:          0  HIT:          0  MISS:          0
cpu0_L1D TRANSLATION ACCESS:     151669  HIT:     146034  MISS:       5635
cpu0_L1D PREFETCH  REQUESTED:          0  ISSUED:          0  USEFUL:          0  USELESS:          0
cpu0_L1D AVERAGE MISS LATENCY: 222.869 cycles
cpu0_L2C TOTAL     ACCESS:    8360926  HIT:    3855198  MISS:    4505728
cpu0_L2C LOAD      ACCESS:    4834968  HIT:    1131373  MISS:    3703595
cpu0_L2C RFO       ACCESS:     950274  HIT:     149031  MISS:     801243
cpu0_L2C PREFETCH  ACCESS:          0  HIT:          0  MISS:          0
cpu0_L2C WRITEBACK ACCESS:    2570049  HIT:    2569976  MISS:         73
cpu0_L2C TRANSLATION ACCESS:       5635  HIT:       4818  MISS:        817
cpu0_L2C PREFETCH  REQUESTED:          0  ISSUED:          0  USEFUL:          0  USELESS:          0
cpu0_L2C AVERAGE MISS LATENCY: 272.127 cycles
LLC TOTAL     ACCESS:    6405765  HIT:    3180908  MISS:    3224857
LLC LOAD      ACCESS:    3703576  HIT:    1435886  MISS:    2267690
LLC RFO       ACCESS:     801234  HIT:     301959  MISS:     499275
LLC PREFETCH  ACCESS:          0  HIT:          0  MISS:          0
LLC WRITEBACK ACCESS:    1900138  HIT:    1442616  MISS:     457522
LLC TRANSLATION ACCESS:        817  HIT:        447  MISS:        370
LLC PREFETCH  REQUESTED:          0  ISSUED:          0  USEFUL:          0  USELESS:          0
LLC AVERAGE MISS LATENCY: 350.445 cycles
Ship++ misses: 97675
Hawkeye misses: 99443
Ship++ used: 2555587
Hawkeye used: 1566324

DRAM Statistics
 CHANNEL 0
 RQ ROW_BUFFER_HIT:     304381  ROW_BUFFER_MISS:    2460726
 DBUS AVG_CONGESTED_CYCLE:    3.95621
 WQ ROW_BUFFER_HIT:      46610  ROW_BUFFER_MISS:     982060  FULL:     547760


CPU 0 Branch Prediction Accuracy: 93.3985% MPKI: 13.5305 Average ROB Occupancy at Mispredict: 48.1351
Branch type MPKI
BRANCH_DIRECT_JUMP: 0.00081
BRANCH_INDIRECT: 0.00022
BRANCH_CONDITIONAL: 13.5274
BRANCH_DIRECT_CALL: 0.00058
BRANCH_INDIRECT_CALL: 0.00056
BRANCH_RETURN: 0.00094

