
*** ChampSim Multicore Out-of-Order Simulator ***

Warmup Instructions: 10000000
Simulation Instructions: 100000000
Number of CPUs: 1
Off-chip DRAM Size: 4 GiB Channels: 1 Width: 64-bit Data Rate: 3200 MT/s

VirtualMemory physical capacity: 8588881920 num_ppages: 2096895
VirtualMemory page size: 4096 log2_page_size: 12

CPU 0 runs /datasets/cs240c-wi22-a00-public/data/Assignment2/xalancbmk_748B.trace.xz
CPU 0 Bimodal branch predictor
Basic BTB sets: 1024 ways: 8 indirect buffer size: 4096 RAS size: 64
Initialize Hawkeye state
Initialize SRRIP state
Heartbeat CPU 0 instructions: 10000002 cycles: 2655103 heartbeat IPC: 3.76633 cumulative IPC: 3.76633 (Simulation time: 0 hr 0 min 22 sec) 

Warmup complete CPU 0 instructions: 10000002 cycles: 2655103 (Simulation time: 0 hr 0 min 22 sec) 

Heartbeat CPU 0 instructions: 20000001 cycles: 11803017 heartbeat IPC: 1.09315 cumulative IPC: 1.09315 (Simulation time: 0 hr 0 min 52 sec) 
Heartbeat CPU 0 instructions: 30000002 cycles: 20711811 heartbeat IPC: 1.12249 cumulative IPC: 1.10762 (Simulation time: 0 hr 1 min 21 sec) 
Heartbeat CPU 0 instructions: 40000002 cycles: 30038830 heartbeat IPC: 1.07215 cumulative IPC: 1.09554 (Simulation time: 0 hr 1 min 52 sec) 
Heartbeat CPU 0 instructions: 50000001 cycles: 38542227 heartbeat IPC: 1.176 cumulative IPC: 1.11461 (Simulation time: 0 hr 2 min 23 sec) 
Heartbeat CPU 0 instructions: 60000003 cycles: 45695074 heartbeat IPC: 1.39804 cumulative IPC: 1.16171 (Simulation time: 0 hr 2 min 56 sec) 
Heartbeat CPU 0 instructions: 70000000 cycles: 51520587 heartbeat IPC: 1.71659 cumulative IPC: 1.22786 (Simulation time: 0 hr 3 min 29 sec) 
Heartbeat CPU 0 instructions: 80000003 cycles: 61838665 heartbeat IPC: 0.969173 cumulative IPC: 1.18276 (Simulation time: 0 hr 4 min 1 sec) 
Heartbeat CPU 0 instructions: 90000003 cycles: 70489449 heartbeat IPC: 1.15596 cumulative IPC: 1.17934 (Simulation time: 0 hr 4 min 32 sec) 
Heartbeat CPU 0 instructions: 100000003 cycles: 78459019 heartbeat IPC: 1.25477 cumulative IPC: 1.18727 (Simulation time: 0 hr 5 min 4 sec) 
Heartbeat CPU 0 instructions: 110000001 cycles: 85718177 heartbeat IPC: 1.37757 cumulative IPC: 1.2039 (Simulation time: 0 hr 5 min 37 sec) 
Finished CPU 0 instructions: 100000004 cycles: 83063075 cumulative IPC: 1.2039 (Simulation time: 0 hr 5 min 37 sec) 

ChampSim completed all CPUs

Region of Interest Statistics

CPU 0 cumulative IPC: 1.2039 instructions: 100000004 cycles: 83063075
cpu0_DTLB TOTAL     ACCESS:   20938697  HIT:   19923441  MISS:    1015256
cpu0_DTLB LOAD      ACCESS:   15325823  HIT:   14391002  MISS:     934821
cpu0_DTLB RFO       ACCESS:    5612874  HIT:    5532439  MISS:      80435
cpu0_DTLB PREFETCH  ACCESS:          0  HIT:          0  MISS:          0
cpu0_DTLB WRITEBACK ACCESS:          0  HIT:          0  MISS:          0
cpu0_DTLB TRANSLATION ACCESS:          0  HIT:          0  MISS:          0
cpu0_DTLB PREFETCH  REQUESTED:          0  ISSUED:          0  USEFUL:          0  USELESS:          0
cpu0_DTLB AVERAGE MISS LATENCY: 12.6536 cycles
cpu0_ITLB TOTAL     ACCESS:    8533761  HIT:    8418726  MISS:     115035
cpu0_ITLB LOAD      ACCESS:    8533761  HIT:    8418726  MISS:     115035
cpu0_ITLB RFO       ACCESS:          0  HIT:          0  MISS:          0
cpu0_ITLB PREFETCH  ACCESS:          0  HIT:          0  MISS:          0
cpu0_ITLB WRITEBACK ACCESS:          0  HIT:          0  MISS:          0
cpu0_ITLB TRANSLATION ACCESS:          0  HIT:          0  MISS:          0
cpu0_ITLB PREFETCH  REQUESTED:          0  ISSUED:          0  USEFUL:          0  USELESS:          0
cpu0_ITLB AVERAGE MISS LATENCY: 9.07865 cycles
cpu0_L1I TOTAL     ACCESS:    5572260  HIT:    5474248  MISS:      98012
cpu0_L1I LOAD      ACCESS:    5572260  HIT:    5474248  MISS:      98012
cpu0_L1I RFO       ACCESS:          0  HIT:          0  MISS:          0
cpu0_L1I PREFETCH  ACCESS:          0  HIT:          0  MISS:          0
cpu0_L1I WRITEBACK ACCESS:          0  HIT:          0  MISS:          0
cpu0_L1I TRANSLATION ACCESS:          0  HIT:          0  MISS:          0
cpu0_L1I PREFETCH  REQUESTED:          0  ISSUED:          0  USEFUL:          0  USELESS:          0
cpu0_L1I AVERAGE MISS LATENCY: 14.7334 cycles
cpu0_STLB TOTAL     ACCESS:    1130291  HIT:    1056279  MISS:      74012
cpu0_STLB LOAD      ACCESS:    1049856  HIT:    1003766  MISS:      46090
cpu0_STLB RFO       ACCESS:      80435  HIT:      52513  MISS:      27922
cpu0_STLB PREFETCH  ACCESS:          0  HIT:          0  MISS:          0
cpu0_STLB WRITEBACK ACCESS:          0  HIT:          0  MISS:          0
cpu0_STLB TRANSLATION ACCESS:          0  HIT:          0  MISS:          0
cpu0_STLB PREFETCH  REQUESTED:          0  ISSUED:          0  USEFUL:          0  USELESS:          0
cpu0_STLB AVERAGE MISS LATENCY: 50.0849 cycles
cpu0_L1D TOTAL     ACCESS:   22872833  HIT:   21398224  MISS:    1474609
cpu0_L1D LOAD      ACCESS:   13617566  HIT:   12404180  MISS:    1213386
cpu0_L1D RFO       ACCESS:    9188184  HIT:    8941938  MISS:     246246
cpu0_L1D PREFETCH  ACCESS:          0  HIT:          0  MISS:          0
cpu0_L1D WRITEBACK ACCESS:          0  HIT:          0  MISS:          0
cpu0_L1D TRANSLATION ACCESS:      67083  HIT:      52106  MISS:      14977
cpu0_L1D PREFETCH  REQUESTED:          0  ISSUED:          0  USEFUL:          0  USELESS:          0
cpu0_L1D AVERAGE MISS LATENCY: 45.6234 cycles
cpu0_L2C TOTAL     ACCESS:    1931914  HIT:    1588128  MISS:     343786
cpu0_L2C LOAD      ACCESS:    1311359  HIT:    1191296  MISS:     120063
cpu0_L2C RFO       ACCESS:     246233  HIT:      23097  MISS:     223136
cpu0_L2C PREFETCH  ACCESS:          0  HIT:          0  MISS:          0
cpu0_L2C WRITEBACK ACCESS:     359345  HIT:     358858  MISS:        487
cpu0_L2C TRANSLATION ACCESS:      14977  HIT:      14877  MISS:        100
cpu0_L2C PREFETCH  REQUESTED:          0  ISSUED:          0  USEFUL:          0  USELESS:          0
cpu0_L2C AVERAGE MISS LATENCY: 148.994 cycles
LLC TOTAL     ACCESS:     632525  HIT:     229563  MISS:     402962
LLC LOAD      ACCESS:     120063  HIT:      69593  MISS:      50470
LLC RFO       ACCESS:     223136  HIT:      33911  MISS:     189225
LLC PREFETCH  ACCESS:          0  HIT:          0  MISS:          0
LLC WRITEBACK ACCESS:     289226  HIT:     125997  MISS:     163229
LLC TRANSLATION ACCESS:        100  HIT:         62  MISS:         38
LLC PREFETCH  REQUESTED:          0  ISSUED:          0  USEFUL:          0  USELESS:          0
LLC AVERAGE MISS LATENCY: 109.223 cycles
Ship++ misses: 8318
Hawkeye misses: 8166
Ship++ used: 17319
Hawkeye used: 378641

DRAM Statistics
 CHANNEL 0
 RQ ROW_BUFFER_HIT:      98890  ROW_BUFFER_MISS:     140843
 DBUS AVG_CONGESTED_CYCLE:    3.94521
 WQ ROW_BUFFER_HIT:      17347  ROW_BUFFER_MISS:     196256  FULL:          0


CPU 0 Branch Prediction Accuracy: 96.4988% MPKI: 10.3974 Average ROB Occupancy at Mispredict: 40.1609
Branch type MPKI
BRANCH_DIRECT_JUMP: 0.0002
BRANCH_INDIRECT: 0.35495
BRANCH_CONDITIONAL: 7.96079
BRANCH_DIRECT_CALL: 9e-05
BRANCH_INDIRECT_CALL: 0.45393
BRANCH_RETURN: 1.62746

