
*** ChampSim Multicore Out-of-Order Simulator ***

Warmup Instructions: 10000000
Simulation Instructions: 100000000
Number of CPUs: 1
Off-chip DRAM Size: 4 GiB Channels: 1 Width: 64-bit Data Rate: 3200 MT/s

VirtualMemory physical capacity: 8588881920 num_ppages: 2096895
VirtualMemory page size: 4096 log2_page_size: 12

CPU 0 runs /datasets/cs240c-wi22-a00-public/data/Assignment2/zeusmp_300B.trace.xz
CPU 0 Bimodal branch predictor
Basic BTB sets: 1024 ways: 8 indirect buffer size: 4096 RAS size: 64
Initialize Hawkeye state
Initialize SRRIP state
Heartbeat CPU 0 instructions: 10000000 cycles: 2814860 heartbeat IPC: 3.55257 cumulative IPC: 3.55257 (Simulation time: 0 hr 0 min 21 sec) 

Warmup complete CPU 0 instructions: 10000002 cycles: 2814863 (Simulation time: 0 hr 0 min 21 sec) 

Heartbeat CPU 0 instructions: 20000004 cycles: 8462138 heartbeat IPC: 1.77077 cumulative IPC: 1.77077 (Simulation time: 0 hr 0 min 52 sec) 
Heartbeat CPU 0 instructions: 30000004 cycles: 14082204 heartbeat IPC: 1.77934 cumulative IPC: 1.77504 (Simulation time: 0 hr 1 min 23 sec) 
Heartbeat CPU 0 instructions: 40000003 cycles: 19692884 heartbeat IPC: 1.78232 cumulative IPC: 1.77746 (Simulation time: 0 hr 1 min 54 sec) 
Heartbeat CPU 0 instructions: 50000004 cycles: 25331591 heartbeat IPC: 1.77346 cumulative IPC: 1.77646 (Simulation time: 0 hr 2 min 24 sec) 
Heartbeat CPU 0 instructions: 60000001 cycles: 30979600 heartbeat IPC: 1.77053 cumulative IPC: 1.77527 (Simulation time: 0 hr 2 min 55 sec) 
Heartbeat CPU 0 instructions: 70000000 cycles: 36580813 heartbeat IPC: 1.78533 cumulative IPC: 1.77694 (Simulation time: 0 hr 3 min 26 sec) 
Heartbeat CPU 0 instructions: 80000000 cycles: 42262408 heartbeat IPC: 1.76007 cumulative IPC: 1.77451 (Simulation time: 0 hr 3 min 58 sec) 
Heartbeat CPU 0 instructions: 90000003 cycles: 48019404 heartbeat IPC: 1.73702 cumulative IPC: 1.76973 (Simulation time: 0 hr 4 min 29 sec) 
Heartbeat CPU 0 instructions: 100000000 cycles: 53747013 heartbeat IPC: 1.74593 cumulative IPC: 1.76706 (Simulation time: 0 hr 5 min 1 sec) 
Heartbeat CPU 0 instructions: 110000000 cycles: 59362779 heartbeat IPC: 1.7807 cumulative IPC: 1.76841 (Simulation time: 0 hr 5 min 32 sec) 
Finished CPU 0 instructions: 100000003 cycles: 56547917 cumulative IPC: 1.76841 (Simulation time: 0 hr 5 min 32 sec) 

ChampSim completed all CPUs

Region of Interest Statistics

CPU 0 cumulative IPC: 1.76841 instructions: 100000003 cycles: 56547917
cpu0_DTLB TOTAL     ACCESS:   16100813  HIT:   15017738  MISS:    1083075
cpu0_DTLB LOAD      ACCESS:   10874786  HIT:    9809463  MISS:    1065323
cpu0_DTLB RFO       ACCESS:    5226027  HIT:    5208275  MISS:      17752
cpu0_DTLB PREFETCH  ACCESS:          0  HIT:          0  MISS:          0
cpu0_DTLB WRITEBACK ACCESS:          0  HIT:          0  MISS:          0
cpu0_DTLB TRANSLATION ACCESS:          0  HIT:          0  MISS:          0
cpu0_DTLB PREFETCH  REQUESTED:          0  ISSUED:          0  USEFUL:          0  USELESS:          0
cpu0_DTLB AVERAGE MISS LATENCY: 10.4909 cycles
cpu0_ITLB TOTAL     ACCESS:    1803584  HIT:    1803584  MISS:          0
cpu0_ITLB LOAD      ACCESS:    1803584  HIT:    1803584  MISS:          0
cpu0_ITLB RFO       ACCESS:          0  HIT:          0  MISS:          0
cpu0_ITLB PREFETCH  ACCESS:          0  HIT:          0  MISS:          0
cpu0_ITLB WRITEBACK ACCESS:          0  HIT:          0  MISS:          0
cpu0_ITLB TRANSLATION ACCESS:          0  HIT:          0  MISS:          0
cpu0_ITLB PREFETCH  REQUESTED:          0  ISSUED:          0  USEFUL:          0  USELESS:          0
cpu0_ITLB AVERAGE MISS LATENCY: -nan cycles
cpu0_L1I TOTAL     ACCESS:    2749857  HIT:    2749857  MISS:          0
cpu0_L1I LOAD      ACCESS:    2749857  HIT:    2749857  MISS:          0
cpu0_L1I RFO       ACCESS:          0  HIT:          0  MISS:          0
cpu0_L1I PREFETCH  ACCESS:          0  HIT:          0  MISS:          0
cpu0_L1I WRITEBACK ACCESS:          0  HIT:          0  MISS:          0
cpu0_L1I TRANSLATION ACCESS:          0  HIT:          0  MISS:          0
cpu0_L1I PREFETCH  REQUESTED:          0  ISSUED:          0  USEFUL:          0  USELESS:          0
cpu0_L1I AVERAGE MISS LATENCY: -nan cycles
cpu0_STLB TOTAL     ACCESS:    1083075  HIT:    1076125  MISS:       6950
cpu0_STLB LOAD      ACCESS:    1065323  HIT:    1060426  MISS:       4897
cpu0_STLB RFO       ACCESS:      17752  HIT:      15699  MISS:       2053
cpu0_STLB PREFETCH  ACCESS:          0  HIT:          0  MISS:          0
cpu0_STLB WRITEBACK ACCESS:          0  HIT:          0  MISS:          0
cpu0_STLB TRANSLATION ACCESS:          0  HIT:          0  MISS:          0
cpu0_STLB PREFETCH  REQUESTED:          0  ISSUED:          0  USEFUL:          0  USELESS:          0
cpu0_STLB AVERAGE MISS LATENCY: 207.503 cycles
cpu0_L1D TOTAL     ACCESS:   18595130  HIT:   17934323  MISS:     660807
cpu0_L1D LOAD      ACCESS:   10915631  HIT:   10434881  MISS:     480750
cpu0_L1D RFO       ACCESS:    7672863  HIT:    7497442  MISS:     175421
cpu0_L1D PREFETCH  ACCESS:          0  HIT:          0  MISS:          0
cpu0_L1D WRITEBACK ACCESS:          0  HIT:          0  MISS:          0
cpu0_L1D TRANSLATION ACCESS:       6636  HIT:       2000  MISS:       4636
cpu0_L1D PREFETCH  REQUESTED:          0  ISSUED:          0  USEFUL:          0  USELESS:          0
cpu0_L1D AVERAGE MISS LATENCY: 138.432 cycles
cpu0_L2C TOTAL     ACCESS:     838885  HIT:     409970  MISS:     428915
cpu0_L2C LOAD      ACCESS:     480720  HIT:     197426  MISS:     283294
cpu0_L2C RFO       ACCESS:     175375  HIT:      34920  MISS:     140455
cpu0_L2C PREFETCH  ACCESS:          0  HIT:          0  MISS:          0
cpu0_L2C WRITEBACK ACCESS:     178154  HIT:     173222  MISS:       4932
cpu0_L2C TRANSLATION ACCESS:       4636  HIT:       4402  MISS:        234
cpu0_L2C PREFETCH  REQUESTED:          0  ISSUED:          0  USEFUL:          0  USELESS:          0
cpu0_L2C AVERAGE MISS LATENCY: 196.311 cycles
LLC TOTAL     ACCESS:     580532  HIT:     237413  MISS:     343119
LLC LOAD      ACCESS:     283294  HIT:      90513  MISS:     192781
LLC RFO       ACCESS:     140455  HIT:      62738  MISS:      77717
LLC PREFETCH  ACCESS:          0  HIT:          0  MISS:          0
LLC WRITEBACK ACCESS:     156549  HIT:      84061  MISS:      72488
LLC TRANSLATION ACCESS:        234  HIT:        101  MISS:        133
LLC PREFETCH  REQUESTED:          0  ISSUED:          0  USEFUL:          0  USELESS:          0
LLC AVERAGE MISS LATENCY: 219.449 cycles
Ship++ misses: 9444
Hawkeye misses: 9485
Ship++ used: 99006
Hawkeye used: 244123

DRAM Statistics
 CHANNEL 0
 RQ ROW_BUFFER_HIT:      17681  ROW_BUFFER_MISS:     252939
 DBUS AVG_CONGESTED_CYCLE:    3.99679
 WQ ROW_BUFFER_HIT:       6485  ROW_BUFFER_MISS:      80063  FULL:          0


CPU 0 Branch Prediction Accuracy: 98.8423% MPKI: 0.45019 Average ROB Occupancy at Mispredict: 205.642
Branch type MPKI
BRANCH_DIRECT_JUMP: 0
BRANCH_INDIRECT: 0
BRANCH_CONDITIONAL: 0.45019
BRANCH_DIRECT_CALL: 0
BRANCH_INDIRECT_CALL: 0
BRANCH_RETURN: 0

