
*** ChampSim Multicore Out-of-Order Simulator ***

Warmup Instructions: 10000000
Simulation Instructions: 100000000
Number of CPUs: 1
Off-chip DRAM Size: 4 GiB Channels: 1 Width: 64-bit Data Rate: 3200 MT/s

VirtualMemory physical capacity: 8588881920 num_ppages: 2096895
VirtualMemory page size: 4096 log2_page_size: 12

CPU 0 runs /datasets/cs240c-wi22-a00-public/data/Assignment2/astar_163B.trace.xz
CPU 0 Bimodal branch predictor
Basic BTB sets: 1024 ways: 8 indirect buffer size: 4096 RAS size: 64
Initialize Hawkeye state
Initialize SRRIP state
Heartbeat CPU 0 instructions: 10000003 cycles: 2500067 heartbeat IPC: 3.99989 cumulative IPC: 3.99989 (Simulation time: 0 hr 1 min 0 sec) 

Warmup complete CPU 0 instructions: 10000003 cycles: 2500067 (Simulation time: 0 hr 1 min 0 sec) 

Heartbeat CPU 0 instructions: 20000001 cycles: 19924266 heartbeat IPC: 0.573914 cumulative IPC: 0.573914 (Simulation time: 0 hr 2 min 30 sec) 
Heartbeat CPU 0 instructions: 30000002 cycles: 35837588 heartbeat IPC: 0.628404 cumulative IPC: 0.599925 (Simulation time: 0 hr 3 min 53 sec) 
Heartbeat CPU 0 instructions: 40000000 cycles: 50569316 heartbeat IPC: 0.678807 cumulative IPC: 0.6241 (Simulation time: 0 hr 5 min 9 sec) 
Heartbeat CPU 0 instructions: 50000001 cycles: 65579710 heartbeat IPC: 0.666205 cumulative IPC: 0.634119 (Simulation time: 0 hr 6 min 28 sec) 
Heartbeat CPU 0 instructions: 60000003 cycles: 80281211 heartbeat IPC: 0.680203 cumulative IPC: 0.642829 (Simulation time: 0 hr 7 min 41 sec) 
Heartbeat CPU 0 instructions: 70000002 cycles: 95023424 heartbeat IPC: 0.678324 cumulative IPC: 0.648485 (Simulation time: 0 hr 8 min 48 sec) 
Heartbeat CPU 0 instructions: 80000000 cycles: 109956903 heartbeat IPC: 0.669636 cumulative IPC: 0.651424 (Simulation time: 0 hr 9 min 50 sec) 
Heartbeat CPU 0 instructions: 90000001 cycles: 124622974 heartbeat IPC: 0.681846 cumulative IPC: 0.655078 (Simulation time: 0 hr 10 min 49 sec) 
Heartbeat CPU 0 instructions: 100000003 cycles: 139463831 heartbeat IPC: 0.673816 cumulative IPC: 0.657108 (Simulation time: 0 hr 11 min 36 sec) 
Heartbeat CPU 0 instructions: 110000000 cycles: 154471534 heartbeat IPC: 0.666324 cumulative IPC: 0.658018 (Simulation time: 0 hr 12 min 23 sec) 
Finished CPU 0 instructions: 100000000 cycles: 151971468 cumulative IPC: 0.658018 (Simulation time: 0 hr 12 min 23 sec) 

ChampSim completed all CPUs

Region of Interest Statistics

CPU 0 cumulative IPC: 0.658018 instructions: 100000000 cycles: 151971468
cpu0_DTLB TOTAL     ACCESS:   21351855  HIT:   21042889  MISS:     308966
cpu0_DTLB LOAD      ACCESS:   16588151  HIT:   16287157  MISS:     300994
cpu0_DTLB RFO       ACCESS:    4763704  HIT:    4755732  MISS:       7972
cpu0_DTLB PREFETCH  ACCESS:          0  HIT:          0  MISS:          0
cpu0_DTLB WRITEBACK ACCESS:          0  HIT:          0  MISS:          0
cpu0_DTLB TRANSLATION ACCESS:          0  HIT:          0  MISS:          0
cpu0_DTLB PREFETCH  REQUESTED:          0  ISSUED:          0  USEFUL:          0  USELESS:          0
cpu0_DTLB AVERAGE MISS LATENCY: 10.2785 cycles
cpu0_ITLB TOTAL     ACCESS:   11988879  HIT:   11988872  MISS:          7
cpu0_ITLB LOAD      ACCESS:   11988879  HIT:   11988872  MISS:          7
cpu0_ITLB RFO       ACCESS:          0  HIT:          0  MISS:          0
cpu0_ITLB PREFETCH  ACCESS:          0  HIT:          0  MISS:          0
cpu0_ITLB WRITEBACK ACCESS:          0  HIT:          0  MISS:          0
cpu0_ITLB TRANSLATION ACCESS:          0  HIT:          0  MISS:          0
cpu0_ITLB PREFETCH  REQUESTED:          0  ISSUED:          0  USEFUL:          0  USELESS:          0
cpu0_ITLB AVERAGE MISS LATENCY: 221.571 cycles
cpu0_L1I TOTAL     ACCESS:      30496  HIT:      30410  MISS:         86
cpu0_L1I LOAD      ACCESS:      30496  HIT:      30410  MISS:         86
cpu0_L1I RFO       ACCESS:          0  HIT:          0  MISS:          0
cpu0_L1I PREFETCH  ACCESS:          0  HIT:          0  MISS:          0
cpu0_L1I WRITEBACK ACCESS:          0  HIT:          0  MISS:          0
cpu0_L1I TRANSLATION ACCESS:          0  HIT:          0  MISS:          0
cpu0_L1I PREFETCH  REQUESTED:          0  ISSUED:          0  USEFUL:          0  USELESS:          0
cpu0_L1I AVERAGE MISS LATENCY: 241.023 cycles
cpu0_STLB TOTAL     ACCESS:     308973  HIT:     291503  MISS:      17470
cpu0_STLB LOAD      ACCESS:     301001  HIT:     285663  MISS:      15338
cpu0_STLB RFO       ACCESS:       7972  HIT:       5840  MISS:       2132
cpu0_STLB PREFETCH  ACCESS:          0  HIT:          0  MISS:          0
cpu0_STLB WRITEBACK ACCESS:          0  HIT:          0  MISS:          0
cpu0_STLB TRANSLATION ACCESS:          0  HIT:          0  MISS:          0
cpu0_STLB PREFETCH  REQUESTED:          0  ISSUED:          0  USEFUL:          0  USELESS:          0
cpu0_STLB AVERAGE MISS LATENCY: 22.5649 cycles
cpu0_L1D TOTAL     ACCESS:   27133347  HIT:   26718915  MISS:     414432
cpu0_L1D LOAD      ACCESS:   16914266  HIT:   16580894  MISS:     333372
cpu0_L1D RFO       ACCESS:   10201667  HIT:   10120868  MISS:      80799
cpu0_L1D PREFETCH  ACCESS:          0  HIT:          0  MISS:          0
cpu0_L1D WRITEBACK ACCESS:          0  HIT:          0  MISS:          0
cpu0_L1D TRANSLATION ACCESS:      17414  HIT:      17153  MISS:        261
cpu0_L1D PREFETCH  REQUESTED:          0  ISSUED:          0  USEFUL:          0  USELESS:          0
cpu0_L1D AVERAGE MISS LATENCY: 64.298 cycles
cpu0_L2C TOTAL     ACCESS:     633389  HIT:     441432  MISS:     191957
cpu0_L2C LOAD      ACCESS:     333390  HIT:     209351  MISS:     124039
cpu0_L2C RFO       ACCESS:      80799  HIT:      12919  MISS:      67880
cpu0_L2C PREFETCH  ACCESS:          0  HIT:          0  MISS:          0
cpu0_L2C WRITEBACK ACCESS:     218939  HIT:     218935  MISS:          4
cpu0_L2C TRANSLATION ACCESS:        261  HIT:        227  MISS:         34
cpu0_L2C PREFETCH  REQUESTED:          0  ISSUED:          0  USEFUL:          0  USELESS:          0
cpu0_L2C AVERAGE MISS LATENCY: 115.175 cycles
LLC TOTAL     ACCESS:     335197  HIT:     176714  MISS:     158483
LLC LOAD      ACCESS:     124038  HIT:      42365  MISS:      81673
LLC RFO       ACCESS:      67880  HIT:      32860  MISS:      35020
LLC PREFETCH  ACCESS:          0  HIT:          0  MISS:          0
LLC WRITEBACK ACCESS:     143245  HIT:     101468  MISS:      41777
LLC TRANSLATION ACCESS:         34  HIT:         21  MISS:         13
LLC PREFETCH  REQUESTED:          0  ISSUED:          0  USEFUL:          0  USELESS:          0
LLC AVERAGE MISS LATENCY: 114.067 cycles
Ship++ misses: 4961
Hawkeye misses: 4482
Ship++ used: 51271
Hawkeye used: 101172

DRAM Statistics
 CHANNEL 0
 RQ ROW_BUFFER_HIT:      10979  ROW_BUFFER_MISS:     105725
 DBUS AVG_CONGESTED_CYCLE:    3.81349
 WQ ROW_BUFFER_HIT:       6480  ROW_BUFFER_MISS:      67879  FULL:          0


CPU 0 Branch Prediction Accuracy: 70.0225% MPKI: 43.9041 Average ROB Occupancy at Mispredict: 12.6362
Branch type MPKI
BRANCH_DIRECT_JUMP: 0.00019
BRANCH_INDIRECT: 0
BRANCH_CONDITIONAL: 43.9037
BRANCH_DIRECT_CALL: 0.00012
BRANCH_INDIRECT_CALL: 0
BRANCH_RETURN: 0.00012

