
*** ChampSim Multicore Out-of-Order Simulator ***

Warmup Instructions: 10000000
Simulation Instructions: 100000000
Number of CPUs: 1
Off-chip DRAM Size: 4 GiB Channels: 1 Width: 64-bit Data Rate: 3200 MT/s

VirtualMemory physical capacity: 8588881920 num_ppages: 2096895
VirtualMemory page size: 4096 log2_page_size: 12

CPU 0 runs /datasets/cs240c-wi22-a00-public/data/Assignment2/astar_23B.trace.xz
CPU 0 Bimodal branch predictor
Basic BTB sets: 1024 ways: 8 indirect buffer size: 4096 RAS size: 64
Initialize Hawkeye state
Initialize SRRIP state
Heartbeat CPU 0 instructions: 10000002 cycles: 2670768 heartbeat IPC: 3.74424 cumulative IPC: 3.74424 (Simulation time: 0 hr 1 min 12 sec) 

Warmup complete CPU 0 instructions: 10000002 cycles: 2670768 (Simulation time: 0 hr 1 min 12 sec) 

Heartbeat CPU 0 instructions: 20000003 cycles: 25577295 heartbeat IPC: 0.436557 cumulative IPC: 0.436557 (Simulation time: 0 hr 2 min 47 sec) 
Heartbeat CPU 0 instructions: 30000000 cycles: 49872489 heartbeat IPC: 0.411604 cumulative IPC: 0.423713 (Simulation time: 0 hr 4 min 26 sec) 
Heartbeat CPU 0 instructions: 40000002 cycles: 74341994 heartbeat IPC: 0.408672 cumulative IPC: 0.418578 (Simulation time: 0 hr 6 min 7 sec) 
Heartbeat CPU 0 instructions: 50000002 cycles: 98565238 heartbeat IPC: 0.412827 cumulative IPC: 0.417125 (Simulation time: 0 hr 7 min 43 sec) 
Heartbeat CPU 0 instructions: 60000000 cycles: 123118867 heartbeat IPC: 0.407272 cumulative IPC: 0.415117 (Simulation time: 0 hr 9 min 7 sec) 
Heartbeat CPU 0 instructions: 70000000 cycles: 146224816 heartbeat IPC: 0.432789 cumulative IPC: 0.417961 (Simulation time: 0 hr 10 min 22 sec) 
Heartbeat CPU 0 instructions: 80000000 cycles: 170195769 heartbeat IPC: 0.417172 cumulative IPC: 0.417848 (Simulation time: 0 hr 11 min 26 sec) 
Heartbeat CPU 0 instructions: 90000004 cycles: 194473336 heartbeat IPC: 0.411903 cumulative IPC: 0.417096 (Simulation time: 0 hr 12 min 27 sec) 
Heartbeat CPU 0 instructions: 100000002 cycles: 217808118 heartbeat IPC: 0.428545 cumulative IPC: 0.418337 (Simulation time: 0 hr 13 min 19 sec) 
Heartbeat CPU 0 instructions: 110000003 cycles: 241742639 heartbeat IPC: 0.417807 cumulative IPC: 0.418284 (Simulation time: 0 hr 14 min 9 sec) 
Finished CPU 0 instructions: 100000001 cycles: 239071871 cumulative IPC: 0.418284 (Simulation time: 0 hr 14 min 9 sec) 

ChampSim completed all CPUs

Region of Interest Statistics

CPU 0 cumulative IPC: 0.418284 instructions: 100000001 cycles: 239071871
cpu0_DTLB TOTAL     ACCESS:   24054208  HIT:   21626362  MISS:    2427846
cpu0_DTLB LOAD      ACCESS:   21285533  HIT:   19103598  MISS:    2181935
cpu0_DTLB RFO       ACCESS:    2768675  HIT:    2522764  MISS:     245911
cpu0_DTLB PREFETCH  ACCESS:          0  HIT:          0  MISS:          0
cpu0_DTLB WRITEBACK ACCESS:          0  HIT:          0  MISS:          0
cpu0_DTLB TRANSLATION ACCESS:          0  HIT:          0  MISS:          0
cpu0_DTLB PREFETCH  REQUESTED:          0  ISSUED:          0  USEFUL:          0  USELESS:          0
cpu0_DTLB AVERAGE MISS LATENCY: 10.5705 cycles
cpu0_ITLB TOTAL     ACCESS:   12810450  HIT:   12810440  MISS:         10
cpu0_ITLB LOAD      ACCESS:   12810450  HIT:   12810440  MISS:         10
cpu0_ITLB RFO       ACCESS:          0  HIT:          0  MISS:          0
cpu0_ITLB PREFETCH  ACCESS:          0  HIT:          0  MISS:          0
cpu0_ITLB WRITEBACK ACCESS:          0  HIT:          0  MISS:          0
cpu0_ITLB TRANSLATION ACCESS:          0  HIT:          0  MISS:          0
cpu0_ITLB PREFETCH  REQUESTED:          0  ISSUED:          0  USEFUL:          0  USELESS:          0
cpu0_ITLB AVERAGE MISS LATENCY: 239.6 cycles
cpu0_L1I TOTAL     ACCESS:       4976  HIT:       4875  MISS:        101
cpu0_L1I LOAD      ACCESS:       4976  HIT:       4875  MISS:        101
cpu0_L1I RFO       ACCESS:          0  HIT:          0  MISS:          0
cpu0_L1I PREFETCH  ACCESS:          0  HIT:          0  MISS:          0
cpu0_L1I WRITEBACK ACCESS:          0  HIT:          0  MISS:          0
cpu0_L1I TRANSLATION ACCESS:          0  HIT:          0  MISS:          0
cpu0_L1I PREFETCH  REQUESTED:          0  ISSUED:          0  USEFUL:          0  USELESS:          0
cpu0_L1I AVERAGE MISS LATENCY: 215.139 cycles
cpu0_STLB TOTAL     ACCESS:    2427856  HIT:    2026646  MISS:     401210
cpu0_STLB LOAD      ACCESS:    2181945  HIT:    1847059  MISS:     334886
cpu0_STLB RFO       ACCESS:     245911  HIT:     179587  MISS:      66324
cpu0_STLB PREFETCH  ACCESS:          0  HIT:          0  MISS:          0
cpu0_STLB WRITEBACK ACCESS:          0  HIT:          0  MISS:          0
cpu0_STLB TRANSLATION ACCESS:          0  HIT:          0  MISS:          0
cpu0_STLB PREFETCH  REQUESTED:          0  ISSUED:          0  USEFUL:          0  USELESS:          0
cpu0_STLB AVERAGE MISS LATENCY: 9.44411 cycles
cpu0_L1D TOTAL     ACCESS:   26431695  HIT:   23507203  MISS:    2924492
cpu0_L1D LOAD      ACCESS:   21757753  HIT:   18872327  MISS:    2885426
cpu0_L1D RFO       ACCESS:    4287416  HIT:    4250333  MISS:      37083
cpu0_L1D PREFETCH  ACCESS:          0  HIT:          0  MISS:          0
cpu0_L1D WRITEBACK ACCESS:          0  HIT:          0  MISS:          0
cpu0_L1D TRANSLATION ACCESS:     386526  HIT:     384543  MISS:       1983
cpu0_L1D PREFETCH  REQUESTED:          0  ISSUED:          0  USEFUL:          0  USELESS:          0
cpu0_L1D AVERAGE MISS LATENCY: 33.2276 cycles
cpu0_L2C TOTAL     ACCESS:    3881066  HIT:    2756704  MISS:    1124362
cpu0_L2C LOAD      ACCESS:    2885456  HIT:    1767333  MISS:    1118123
cpu0_L2C RFO       ACCESS:      37083  HIT:      31088  MISS:       5995
cpu0_L2C PREFETCH  ACCESS:          0  HIT:          0  MISS:          0
cpu0_L2C WRITEBACK ACCESS:     956544  HIT:     956488  MISS:         56
cpu0_L2C TRANSLATION ACCESS:       1983  HIT:       1795  MISS:        188
cpu0_L2C PREFETCH  REQUESTED:          0  ISSUED:          0  USEFUL:          0  USELESS:          0
cpu0_L2C AVERAGE MISS LATENCY: 57.7799 cycles
LLC TOTAL     ACCESS:    1532657  HIT:    1257855  MISS:     274802
LLC LOAD      ACCESS:    1117967  HIT:     879696  MISS:     238271
LLC RFO       ACCESS:       5995  HIT:       5664  MISS:        331
LLC PREFETCH  ACCESS:          0  HIT:          0  MISS:          0
LLC WRITEBACK ACCESS:     408507  HIT:     372321  MISS:      36186
LLC TRANSLATION ACCESS:        188  HIT:        174  MISS:         14
LLC PREFETCH  REQUESTED:          0  ISSUED:          0  USEFUL:          0  USELESS:          0
LLC AVERAGE MISS LATENCY: 150.502 cycles
Ship++ misses: 8296
Hawkeye misses: 8428
Ship++ used: 121548
Hawkeye used: 146694

DRAM Statistics
 CHANNEL 0
 RQ ROW_BUFFER_HIT:        586  ROW_BUFFER_MISS:     237853
 DBUS AVG_CONGESTED_CYCLE:    3.56589
 WQ ROW_BUFFER_HIT:       6835  ROW_BUFFER_MISS:     130911  FULL:          0


CPU 0 Branch Prediction Accuracy: 69.3175% MPKI: 58.5794 Average ROB Occupancy at Mispredict: 5.13463
Branch type MPKI
BRANCH_DIRECT_JUMP: 0.00025
BRANCH_INDIRECT: 0
BRANCH_CONDITIONAL: 58.5789
BRANCH_DIRECT_CALL: 0.00016
BRANCH_INDIRECT_CALL: 0
BRANCH_RETURN: 0.00016

