
*** ChampSim Multicore Out-of-Order Simulator ***

Warmup Instructions: 10000000
Simulation Instructions: 100000000
Number of CPUs: 1
Off-chip DRAM Size: 4 GiB Channels: 1 Width: 64-bit Data Rate: 3200 MT/s

VirtualMemory physical capacity: 8588881920 num_ppages: 2096895
VirtualMemory page size: 4096 log2_page_size: 12

CPU 0 runs /datasets/cs240c-wi22-a00-public/data/Assignment2/cactusADM_1039B.trace.xz
CPU 0 Bimodal branch predictor
Basic BTB sets: 1024 ways: 8 indirect buffer size: 4096 RAS size: 64
Initialize Hawkeye state
Initialize SRRIP state
Heartbeat CPU 0 instructions: 10000004 cycles: 3647107 heartbeat IPC: 2.7419 cumulative IPC: 2.7419 (Simulation time: 0 hr 0 min 54 sec) 

Warmup complete CPU 0 instructions: 10000004 cycles: 3647107 (Simulation time: 0 hr 0 min 54 sec) 

Heartbeat CPU 0 instructions: 20000004 cycles: 13452263 heartbeat IPC: 1.01987 cumulative IPC: 1.01987 (Simulation time: 0 hr 2 min 29 sec) 
Heartbeat CPU 0 instructions: 30000000 cycles: 22742660 heartbeat IPC: 1.07638 cumulative IPC: 1.04736 (Simulation time: 0 hr 3 min 55 sec) 
Heartbeat CPU 0 instructions: 40000000 cycles: 31740210 heartbeat IPC: 1.11141 cumulative IPC: 1.06788 (Simulation time: 0 hr 5 min 17 sec) 
Heartbeat CPU 0 instructions: 50000004 cycles: 40276627 heartbeat IPC: 1.17145 cumulative IPC: 1.09202 (Simulation time: 0 hr 6 min 37 sec) 
Heartbeat CPU 0 instructions: 60000002 cycles: 46367548 heartbeat IPC: 1.64179 cumulative IPC: 1.1704 (Simulation time: 0 hr 7 min 55 sec) 
Heartbeat CPU 0 instructions: 70000002 cycles: 54781079 heartbeat IPC: 1.18856 cumulative IPC: 1.17339 (Simulation time: 0 hr 9 min 23 sec) 
Heartbeat CPU 0 instructions: 80000004 cycles: 63082910 heartbeat IPC: 1.20455 cumulative IPC: 1.17774 (Simulation time: 0 hr 10 min 49 sec) 
Heartbeat CPU 0 instructions: 90000004 cycles: 71524636 heartbeat IPC: 1.18459 cumulative IPC: 1.17859 (Simulation time: 0 hr 12 min 17 sec) 
Heartbeat CPU 0 instructions: 100000000 cycles: 77729712 heartbeat IPC: 1.61158 cumulative IPC: 1.21486 (Simulation time: 0 hr 13 min 28 sec) 
Heartbeat CPU 0 instructions: 110000001 cycles: 86130635 heartbeat IPC: 1.19035 cumulative IPC: 1.21236 (Simulation time: 0 hr 14 min 46 sec) 
Finished CPU 0 instructions: 100000002 cycles: 82483529 cumulative IPC: 1.21236 (Simulation time: 0 hr 14 min 46 sec) 

ChampSim completed all CPUs

Region of Interest Statistics

CPU 0 cumulative IPC: 1.21236 instructions: 100000002 cycles: 82483529
cpu0_DTLB TOTAL     ACCESS:   22859102  HIT:   20809809  MISS:    2049293
cpu0_DTLB LOAD      ACCESS:   18942107  HIT:   17509136  MISS:    1432971
cpu0_DTLB RFO       ACCESS:    3916995  HIT:    3300673  MISS:     616322
cpu0_DTLB PREFETCH  ACCESS:          0  HIT:          0  MISS:          0
cpu0_DTLB WRITEBACK ACCESS:          0  HIT:          0  MISS:          0
cpu0_DTLB TRANSLATION ACCESS:          0  HIT:          0  MISS:          0
cpu0_DTLB PREFETCH  REQUESTED:          0  ISSUED:          0  USEFUL:          0  USELESS:          0
cpu0_DTLB AVERAGE MISS LATENCY: 15.8087 cycles
cpu0_ITLB TOTAL     ACCESS:    1451304  HIT:    1451304  MISS:          0
cpu0_ITLB LOAD      ACCESS:    1451304  HIT:    1451304  MISS:          0
cpu0_ITLB RFO       ACCESS:          0  HIT:          0  MISS:          0
cpu0_ITLB PREFETCH  ACCESS:          0  HIT:          0  MISS:          0
cpu0_ITLB WRITEBACK ACCESS:          0  HIT:          0  MISS:          0
cpu0_ITLB TRANSLATION ACCESS:          0  HIT:          0  MISS:          0
cpu0_ITLB PREFETCH  REQUESTED:          0  ISSUED:          0  USEFUL:          0  USELESS:          0
cpu0_ITLB AVERAGE MISS LATENCY: -nan cycles
cpu0_L1I TOTAL     ACCESS:    8116702  HIT:    8116699  MISS:          3
cpu0_L1I LOAD      ACCESS:    8116702  HIT:    8116699  MISS:          3
cpu0_L1I RFO       ACCESS:          0  HIT:          0  MISS:          0
cpu0_L1I PREFETCH  ACCESS:          0  HIT:          0  MISS:          0
cpu0_L1I WRITEBACK ACCESS:          0  HIT:          0  MISS:          0
cpu0_L1I TRANSLATION ACCESS:          0  HIT:          0  MISS:          0
cpu0_L1I PREFETCH  REQUESTED:          0  ISSUED:          0  USEFUL:          0  USELESS:          0
cpu0_L1I AVERAGE MISS LATENCY: 514.667 cycles
cpu0_STLB TOTAL     ACCESS:    2049293  HIT:    1127924  MISS:     921369
cpu0_STLB LOAD      ACCESS:    1432971  HIT:     834266  MISS:     598705
cpu0_STLB RFO       ACCESS:     616322  HIT:     293658  MISS:     322664
cpu0_STLB PREFETCH  ACCESS:          0  HIT:          0  MISS:          0
cpu0_STLB WRITEBACK ACCESS:          0  HIT:          0  MISS:          0
cpu0_STLB TRANSLATION ACCESS:          0  HIT:          0  MISS:          0
cpu0_STLB PREFETCH  REQUESTED:          0  ISSUED:          0  USEFUL:          0  USELESS:          0
cpu0_STLB AVERAGE MISS LATENCY: 14.986 cycles
cpu0_L1D TOTAL     ACCESS:   37608091  HIT:   36284356  MISS:    1323735
cpu0_L1D LOAD      ACCESS:   25699024  HIT:   24646607  MISS:    1052417
cpu0_L1D RFO       ACCESS:   10988543  HIT:   10723172  MISS:     265371
cpu0_L1D PREFETCH  ACCESS:          0  HIT:          0  MISS:          0
cpu0_L1D WRITEBACK ACCESS:          0  HIT:          0  MISS:          0
cpu0_L1D TRANSLATION ACCESS:     920524  HIT:     914577  MISS:       5947
cpu0_L1D PREFETCH  REQUESTED:          0  ISSUED:          0  USEFUL:          0  USELESS:          0
cpu0_L1D AVERAGE MISS LATENCY: 278.309 cycles
cpu0_L2C TOTAL     ACCESS:    1593010  HIT:     694190  MISS:     898820
cpu0_L2C LOAD      ACCESS:    1052419  HIT:     419495  MISS:     632924
cpu0_L2C RFO       ACCESS:     265371  HIT:          0  MISS:     265371
cpu0_L2C PREFETCH  ACCESS:          0  HIT:          0  MISS:          0
cpu0_L2C WRITEBACK ACCESS:     269273  HIT:     269059  MISS:        214
cpu0_L2C TRANSLATION ACCESS:       5947  HIT:       5636  MISS:        311
cpu0_L2C PREFETCH  REQUESTED:          0  ISSUED:          0  USEFUL:          0  USELESS:          0
cpu0_L2C AVERAGE MISS LATENCY: 393.658 cycles
LLC TOTAL     ACCESS:    1165771  HIT:     352108  MISS:     813663
LLC LOAD      ACCESS:     632924  HIT:     156888  MISS:     476036
LLC RFO       ACCESS:     265371  HIT:      85118  MISS:     180253
LLC PREFETCH  ACCESS:          0  HIT:          0  MISS:          0
LLC WRITEBACK ACCESS:     267165  HIT:     110080  MISS:     157085
LLC TRANSLATION ACCESS:        311  HIT:         22  MISS:        289
LLC PREFETCH  REQUESTED:          0  ISSUED:          0  USEFUL:          0  USELESS:          0
LLC AVERAGE MISS LATENCY: 411.664 cycles
Ship++ misses: 22583
Hawkeye misses: 22719
Ship++ used: 384179
Hawkeye used: 461026

DRAM Statistics
 CHANNEL 0
 RQ ROW_BUFFER_HIT:       6372  ROW_BUFFER_MISS:     650194
 DBUS AVG_CONGESTED_CYCLE:    3.97477
 WQ ROW_BUFFER_HIT:      19646  ROW_BUFFER_MISS:     210938  FULL:        489


CPU 0 Branch Prediction Accuracy: 97.7479% MPKI: 0.04701 Average ROB Occupancy at Mispredict: 283.854
Branch type MPKI
BRANCH_DIRECT_JUMP: 0
BRANCH_INDIRECT: 0
BRANCH_CONDITIONAL: 0.04701
BRANCH_DIRECT_CALL: 0
BRANCH_INDIRECT_CALL: 0
BRANCH_RETURN: 0

