
*** ChampSim Multicore Out-of-Order Simulator ***

Warmup Instructions: 10000000
Simulation Instructions: 100000000
Number of CPUs: 1
Off-chip DRAM Size: 4 GiB Channels: 1 Width: 64-bit Data Rate: 3200 MT/s

VirtualMemory physical capacity: 8588881920 num_ppages: 2096895
VirtualMemory page size: 4096 log2_page_size: 12

CPU 0 runs /datasets/cs240c-wi22-a00-public/data/Assignment2/calculix_2655B.trace.xz
CPU 0 Bimodal branch predictor
Basic BTB sets: 1024 ways: 8 indirect buffer size: 4096 RAS size: 64
Initialize Hawkeye state
Initialize SRRIP state
Heartbeat CPU 0 instructions: 10000003 cycles: 2503575 heartbeat IPC: 3.99429 cumulative IPC: 3.99429 (Simulation time: 0 hr 0 min 25 sec) 

Warmup complete CPU 0 instructions: 10000003 cycles: 2503575 (Simulation time: 0 hr 0 min 25 sec) 

Heartbeat CPU 0 instructions: 20000002 cycles: 5943208 heartbeat IPC: 2.90729 cumulative IPC: 2.90729 (Simulation time: 0 hr 0 min 56 sec) 
Heartbeat CPU 0 instructions: 30000004 cycles: 9601475 heartbeat IPC: 2.73354 cumulative IPC: 2.81773 (Simulation time: 0 hr 1 min 27 sec) 
Heartbeat CPU 0 instructions: 40000004 cycles: 13264530 heartbeat IPC: 2.72996 cumulative IPC: 2.78786 (Simulation time: 0 hr 1 min 57 sec) 
Heartbeat CPU 0 instructions: 50000001 cycles: 17072721 heartbeat IPC: 2.62592 cumulative IPC: 2.74553 (Simulation time: 0 hr 2 min 28 sec) 
Heartbeat CPU 0 instructions: 60000003 cycles: 21112565 heartbeat IPC: 2.47534 cumulative IPC: 2.68687 (Simulation time: 0 hr 2 min 58 sec) 
Heartbeat CPU 0 instructions: 70000001 cycles: 25244845 heartbeat IPC: 2.41997 cumulative IPC: 2.63838 (Simulation time: 0 hr 3 min 31 sec) 
Heartbeat CPU 0 instructions: 80000001 cycles: 29028857 heartbeat IPC: 2.6427 cumulative IPC: 2.63899 (Simulation time: 0 hr 4 min 0 sec) 
Heartbeat CPU 0 instructions: 90000002 cycles: 32733735 heartbeat IPC: 2.69914 cumulative IPC: 2.64636 (Simulation time: 0 hr 4 min 28 sec) 
Heartbeat CPU 0 instructions: 100000003 cycles: 36303679 heartbeat IPC: 2.80116 cumulative IPC: 2.66271 (Simulation time: 0 hr 4 min 54 sec) 
Heartbeat CPU 0 instructions: 110000004 cycles: 39803037 heartbeat IPC: 2.85767 cumulative IPC: 2.681 (Simulation time: 0 hr 5 min 19 sec) 
Finished CPU 0 instructions: 100000001 cycles: 37299462 cumulative IPC: 2.681 (Simulation time: 0 hr 5 min 19 sec) 

ChampSim completed all CPUs

Region of Interest Statistics

CPU 0 cumulative IPC: 2.681 instructions: 100000001 cycles: 37299462
cpu0_DTLB TOTAL     ACCESS:   12581995  HIT:   12566450  MISS:      15545
cpu0_DTLB LOAD      ACCESS:   11995676  HIT:   11980175  MISS:      15501
cpu0_DTLB RFO       ACCESS:     586319  HIT:     586275  MISS:         44
cpu0_DTLB PREFETCH  ACCESS:          0  HIT:          0  MISS:          0
cpu0_DTLB WRITEBACK ACCESS:          0  HIT:          0  MISS:          0
cpu0_DTLB TRANSLATION ACCESS:          0  HIT:          0  MISS:          0
cpu0_DTLB PREFETCH  REQUESTED:          0  ISSUED:          0  USEFUL:          0  USELESS:          0
cpu0_DTLB AVERAGE MISS LATENCY: 34.1335 cycles
cpu0_ITLB TOTAL     ACCESS:    6289676  HIT:    6289676  MISS:          0
cpu0_ITLB LOAD      ACCESS:    6289676  HIT:    6289676  MISS:          0
cpu0_ITLB RFO       ACCESS:          0  HIT:          0  MISS:          0
cpu0_ITLB PREFETCH  ACCESS:          0  HIT:          0  MISS:          0
cpu0_ITLB WRITEBACK ACCESS:          0  HIT:          0  MISS:          0
cpu0_ITLB TRANSLATION ACCESS:          0  HIT:          0  MISS:          0
cpu0_ITLB PREFETCH  REQUESTED:          0  ISSUED:          0  USEFUL:          0  USELESS:          0
cpu0_ITLB AVERAGE MISS LATENCY: -nan cycles
cpu0_L1I TOTAL     ACCESS:       2858  HIT:       2858  MISS:          0
cpu0_L1I LOAD      ACCESS:       2858  HIT:       2858  MISS:          0
cpu0_L1I RFO       ACCESS:          0  HIT:          0  MISS:          0
cpu0_L1I PREFETCH  ACCESS:          0  HIT:          0  MISS:          0
cpu0_L1I WRITEBACK ACCESS:          0  HIT:          0  MISS:          0
cpu0_L1I TRANSLATION ACCESS:          0  HIT:          0  MISS:          0
cpu0_L1I PREFETCH  REQUESTED:          0  ISSUED:          0  USEFUL:          0  USELESS:          0
cpu0_L1I AVERAGE MISS LATENCY: -nan cycles
cpu0_STLB TOTAL     ACCESS:      15545  HIT:      13635  MISS:       1910
cpu0_STLB LOAD      ACCESS:      15501  HIT:      13593  MISS:       1908
cpu0_STLB RFO       ACCESS:         44  HIT:         42  MISS:          2
cpu0_STLB PREFETCH  ACCESS:          0  HIT:          0  MISS:          0
cpu0_STLB WRITEBACK ACCESS:          0  HIT:          0  MISS:          0
cpu0_STLB TRANSLATION ACCESS:          0  HIT:          0  MISS:          0
cpu0_STLB PREFETCH  REQUESTED:          0  ISSUED:          0  USEFUL:          0  USELESS:          0
cpu0_STLB AVERAGE MISS LATENCY: 204.417 cycles
cpu0_L1D TOTAL     ACCESS:   14110669  HIT:   12897176  MISS:    1213493
cpu0_L1D LOAD      ACCESS:   12551314  HIT:   11339132  MISS:    1212182
cpu0_L1D RFO       ACCESS:    1557475  HIT:    1556231  MISS:       1244
cpu0_L1D PREFETCH  ACCESS:          0  HIT:          0  MISS:          0
cpu0_L1D WRITEBACK ACCESS:          0  HIT:          0  MISS:          0
cpu0_L1D TRANSLATION ACCESS:       1880  HIT:       1813  MISS:         67
cpu0_L1D PREFETCH  REQUESTED:          0  ISSUED:          0  USEFUL:          0  USELESS:          0
cpu0_L1D AVERAGE MISS LATENCY: 27.1431 cycles
cpu0_L2C TOTAL     ACCESS:    1327973  HIT:    1058336  MISS:     269637
cpu0_L2C LOAD      ACCESS:    1212182  HIT:     942684  MISS:     269498
cpu0_L2C RFO       ACCESS:       1244  HIT:       1214  MISS:         30
cpu0_L2C PREFETCH  ACCESS:          0  HIT:          0  MISS:          0
cpu0_L2C WRITEBACK ACCESS:     114480  HIT:     114388  MISS:         92
cpu0_L2C TRANSLATION ACCESS:         67  HIT:         50  MISS:         17
cpu0_L2C PREFETCH  REQUESTED:          0  ISSUED:          0  USEFUL:          0  USELESS:          0
cpu0_L2C AVERAGE MISS LATENCY: 72.3871 cycles
LLC TOTAL     ACCESS:     335187  HIT:     213166  MISS:     122021
LLC LOAD      ACCESS:     269498  HIT:     148162  MISS:     121336
LLC RFO       ACCESS:         30  HIT:         20  MISS:         10
LLC PREFETCH  ACCESS:          0  HIT:          0  MISS:          0
LLC WRITEBACK ACCESS:      65642  HIT:      64972  MISS:        670
LLC TRANSLATION ACCESS:         17  HIT:         12  MISS:          5
LLC PREFETCH  REQUESTED:          0  ISSUED:          0  USEFUL:          0  USELESS:          0
LLC AVERAGE MISS LATENCY: 113.568 cycles
Ship++ misses: 5065
Hawkeye misses: 4368
Ship++ used: 39575
Hawkeye used: 69666

DRAM Statistics
 CHANNEL 0
 RQ ROW_BUFFER_HIT:      85163  ROW_BUFFER_MISS:      36187
 DBUS AVG_CONGESTED_CYCLE:    3.79222
 WQ ROW_BUFFER_HIT:        638  ROW_BUFFER_MISS:        911  FULL:          0


CPU 0 Branch Prediction Accuracy: 96.352% MPKI: 1.49459 Average ROB Occupancy at Mispredict: 218.828
Branch type MPKI
BRANCH_DIRECT_JUMP: 0
BRANCH_INDIRECT: 0
BRANCH_CONDITIONAL: 1.49459
BRANCH_DIRECT_CALL: 0
BRANCH_INDIRECT_CALL: 0
BRANCH_RETURN: 0

