
*** ChampSim Multicore Out-of-Order Simulator ***

Warmup Instructions: 10000000
Simulation Instructions: 100000000
Number of CPUs: 1
Off-chip DRAM Size: 4 GiB Channels: 1 Width: 64-bit Data Rate: 3200 MT/s

VirtualMemory physical capacity: 8588881920 num_ppages: 2096895
VirtualMemory page size: 4096 log2_page_size: 12

CPU 0 runs /datasets/cs240c-wi22-a00-public/data/Assignment2/GemsFDTD_109B.trace.xz
CPU 0 Bimodal branch predictor
Basic BTB sets: 1024 ways: 8 indirect buffer size: 4096 RAS size: 64
Initialize Hawkeye state
Initialize SRRIP state
Heartbeat CPU 0 instructions: 10000004 cycles: 4294006 heartbeat IPC: 2.32883 cumulative IPC: 2.32883 (Simulation time: 0 hr 0 min 58 sec) 

Warmup complete CPU 0 instructions: 10000004 cycles: 4294006 (Simulation time: 0 hr 0 min 58 sec) 

Heartbeat CPU 0 instructions: 20000000 cycles: 35056610 heartbeat IPC: 0.32507 cumulative IPC: 0.32507 (Simulation time: 0 hr 4 min 14 sec) 
Heartbeat CPU 0 instructions: 30000004 cycles: 55923788 heartbeat IPC: 0.479222 cumulative IPC: 0.387373 (Simulation time: 0 hr 6 min 6 sec) 
Heartbeat CPU 0 instructions: 40000004 cycles: 62129631 heartbeat IPC: 1.61138 cumulative IPC: 0.518711 (Simulation time: 0 hr 6 min 51 sec) 
Heartbeat CPU 0 instructions: 50000002 cycles: 83123721 heartbeat IPC: 0.476324 cumulative IPC: 0.507423 (Simulation time: 0 hr 8 min 46 sec) 
Heartbeat CPU 0 instructions: 60000002 cycles: 123561477 heartbeat IPC: 0.247294 cumulative IPC: 0.419226 (Simulation time: 0 hr 12 min 32 sec) 
Heartbeat CPU 0 instructions: 70000004 cycles: 163535264 heartbeat IPC: 0.250164 cumulative IPC: 0.376787 (Simulation time: 0 hr 16 min 26 sec) 
Heartbeat CPU 0 instructions: 80000004 cycles: 203420318 heartbeat IPC: 0.25072 cumulative IPC: 0.351536 (Simulation time: 0 hr 20 min 16 sec) 
Heartbeat CPU 0 instructions: 90000000 cycles: 242986920 heartbeat IPC: 0.252738 cumulative IPC: 0.335159 (Simulation time: 0 hr 24 min 9 sec) 
Heartbeat CPU 0 instructions: 100000003 cycles: 282757262 heartbeat IPC: 0.251444 cumulative IPC: 0.323202 (Simulation time: 0 hr 27 min 48 sec) 
Heartbeat CPU 0 instructions: 110000003 cycles: 322508229 heartbeat IPC: 0.251566 cumulative IPC: 0.314254 (Simulation time: 0 hr 31 min 25 sec) 
Finished CPU 0 instructions: 100000004 cycles: 318214224 cumulative IPC: 0.314254 (Simulation time: 0 hr 31 min 25 sec) 

ChampSim completed all CPUs

Region of Interest Statistics

CPU 0 cumulative IPC: 0.314254 instructions: 100000004 cycles: 318214224
cpu0_DTLB TOTAL     ACCESS:   26448250  HIT:   26248824  MISS:     199426
cpu0_DTLB LOAD      ACCESS:   21018043  HIT:   20820621  MISS:     197422
cpu0_DTLB RFO       ACCESS:    5430207  HIT:    5428203  MISS:       2004
cpu0_DTLB PREFETCH  ACCESS:          0  HIT:          0  MISS:          0
cpu0_DTLB WRITEBACK ACCESS:          0  HIT:          0  MISS:          0
cpu0_DTLB TRANSLATION ACCESS:          0  HIT:          0  MISS:          0
cpu0_DTLB PREFETCH  REQUESTED:          0  ISSUED:          0  USEFUL:          0  USELESS:          0
cpu0_DTLB AVERAGE MISS LATENCY: 444.883 cycles
cpu0_ITLB TOTAL     ACCESS:    2047095  HIT:    2047077  MISS:         18
cpu0_ITLB LOAD      ACCESS:    2047095  HIT:    2047077  MISS:         18
cpu0_ITLB RFO       ACCESS:          0  HIT:          0  MISS:          0
cpu0_ITLB PREFETCH  ACCESS:          0  HIT:          0  MISS:          0
cpu0_ITLB WRITEBACK ACCESS:          0  HIT:          0  MISS:          0
cpu0_ITLB TRANSLATION ACCESS:          0  HIT:          0  MISS:          0
cpu0_ITLB PREFETCH  REQUESTED:          0  ISSUED:          0  USEFUL:          0  USELESS:          0
cpu0_ITLB AVERAGE MISS LATENCY: 255.111 cycles
cpu0_L1I TOTAL     ACCESS:    1722934  HIT:    1722504  MISS:        430
cpu0_L1I LOAD      ACCESS:    1722934  HIT:    1722504  MISS:        430
cpu0_L1I RFO       ACCESS:          0  HIT:          0  MISS:          0
cpu0_L1I PREFETCH  ACCESS:          0  HIT:          0  MISS:          0
cpu0_L1I WRITEBACK ACCESS:          0  HIT:          0  MISS:          0
cpu0_L1I TRANSLATION ACCESS:          0  HIT:          0  MISS:          0
cpu0_L1I PREFETCH  REQUESTED:          0  ISSUED:          0  USEFUL:          0  USELESS:          0
cpu0_L1I AVERAGE MISS LATENCY: 347.665 cycles
cpu0_STLB TOTAL     ACCESS:     199444  HIT:      33983  MISS:     165461
cpu0_STLB LOAD      ACCESS:     197440  HIT:      32673  MISS:     164767
cpu0_STLB RFO       ACCESS:       2004  HIT:       1310  MISS:        694
cpu0_STLB PREFETCH  ACCESS:          0  HIT:          0  MISS:          0
cpu0_STLB WRITEBACK ACCESS:          0  HIT:          0  MISS:          0
cpu0_STLB TRANSLATION ACCESS:          0  HIT:          0  MISS:          0
cpu0_STLB PREFETCH  REQUESTED:          0  ISSUED:          0  USEFUL:          0  USELESS:          0
cpu0_STLB AVERAGE MISS LATENCY: 525.269 cycles
cpu0_L1D TOTAL     ACCESS:   22875856  HIT:   19645550  MISS:    3230306
cpu0_L1D LOAD      ACCESS:   13776946  HIT:   10676940  MISS:    3100006
cpu0_L1D RFO       ACCESS:    9009084  HIT:    8881471  MISS:     127613
cpu0_L1D PREFETCH  ACCESS:          0  HIT:          0  MISS:          0
cpu0_L1D WRITEBACK ACCESS:          0  HIT:          0  MISS:          0
cpu0_L1D TRANSLATION ACCESS:      89826  HIT:      87139  MISS:       2687
cpu0_L1D PREFETCH  REQUESTED:          0  ISSUED:          0  USEFUL:          0  USELESS:          0
cpu0_L1D AVERAGE MISS LATENCY: 720.091 cycles
cpu0_L2C TOTAL     ACCESS:    4595569  HIT:    1423643  MISS:    3171926
cpu0_L2C LOAD      ACCESS:    3100436  HIT:      41336  MISS:    3059100
cpu0_L2C RFO       ACCESS:     127613  HIT:      15083  MISS:     112530
cpu0_L2C PREFETCH  ACCESS:          0  HIT:          0  MISS:          0
cpu0_L2C WRITEBACK ACCESS:    1364833  HIT:    1364734  MISS:         99
cpu0_L2C TRANSLATION ACCESS:       2687  HIT:       2490  MISS:        197
cpu0_L2C PREFETCH  REQUESTED:          0  ISSUED:          0  USEFUL:          0  USELESS:          0
cpu0_L2C AVERAGE MISS LATENCY: 722.173 cycles
LLC TOTAL     ACCESS:    4523165  HIT:    1071792  MISS:    3451373
LLC LOAD      ACCESS:    3059097  HIT:     701759  MISS:    2357338
LLC RFO       ACCESS:     112530  HIT:      97244  MISS:      15286
LLC PREFETCH  ACCESS:          0  HIT:          0  MISS:          0
LLC WRITEBACK ACCESS:    1351341  HIT:     272690  MISS:    1078651
LLC TRANSLATION ACCESS:        197  HIT:         99  MISS:         98
LLC PREFETCH  REQUESTED:          0  ISSUED:          0  USEFUL:          0  USELESS:          0
LLC AVERAGE MISS LATENCY: 644.395 cycles
Ship++ misses: 83113
Hawkeye misses: 81248
Ship++ used: 782475
Hawkeye used: 3043463

DRAM Statistics
 CHANNEL 0
 RQ ROW_BUFFER_HIT:      44822  ROW_BUFFER_MISS:    2327886
 DBUS AVG_CONGESTED_CYCLE:    3.99631
 WQ ROW_BUFFER_HIT:      20387  ROW_BUFFER_MISS:    1238962  FULL:      74818


CPU 0 Branch Prediction Accuracy: 98.929% MPKI: 0.55515 Average ROB Occupancy at Mispredict: 266.226
Branch type MPKI
BRANCH_DIRECT_JUMP: 0.00045
BRANCH_INDIRECT: 1e-05
BRANCH_CONDITIONAL: 0.5534
BRANCH_DIRECT_CALL: 0.00065
BRANCH_INDIRECT_CALL: 0
BRANCH_RETURN: 0.00064

