
*** ChampSim Multicore Out-of-Order Simulator ***

Warmup Instructions: 10000000
Simulation Instructions: 100000000
Number of CPUs: 1
Off-chip DRAM Size: 4 GiB Channels: 1 Width: 64-bit Data Rate: 3200 MT/s

VirtualMemory physical capacity: 8588881920 num_ppages: 2096895
VirtualMemory page size: 4096 log2_page_size: 12

CPU 0 runs /datasets/cs240c-wi22-a00-public/data/Assignment2/GemsFDTD_712B.trace.xz
CPU 0 Bimodal branch predictor
Basic BTB sets: 1024 ways: 8 indirect buffer size: 4096 RAS size: 64
Initialize Hawkeye state
Initialize SRRIP state
Heartbeat CPU 0 instructions: 10000003 cycles: 4479620 heartbeat IPC: 2.23233 cumulative IPC: 2.23233 (Simulation time: 0 hr 1 min 3 sec) 

Warmup complete CPU 0 instructions: 10000003 cycles: 4479620 (Simulation time: 0 hr 1 min 3 sec) 

Heartbeat CPU 0 instructions: 20000000 cycles: 44597221 heartbeat IPC: 0.249267 cumulative IPC: 0.249267 (Simulation time: 0 hr 5 min 16 sec) 
Heartbeat CPU 0 instructions: 30000001 cycles: 84374861 heartbeat IPC: 0.251398 cumulative IPC: 0.250328 (Simulation time: 0 hr 9 min 24 sec) 
Heartbeat CPU 0 instructions: 40000004 cycles: 124510761 heartbeat IPC: 0.249154 cumulative IPC: 0.249935 (Simulation time: 0 hr 13 min 42 sec) 
Heartbeat CPU 0 instructions: 50000003 cycles: 164475223 heartbeat IPC: 0.250222 cumulative IPC: 0.250007 (Simulation time: 0 hr 18 min 3 sec) 
Heartbeat CPU 0 instructions: 60000003 cycles: 204149604 heartbeat IPC: 0.252052 cumulative IPC: 0.250413 (Simulation time: 0 hr 22 min 23 sec) 
Heartbeat CPU 0 instructions: 70000002 cycles: 244090002 heartbeat IPC: 0.250373 cumulative IPC: 0.250407 (Simulation time: 0 hr 26 min 46 sec) 
Heartbeat CPU 0 instructions: 80000000 cycles: 278852528 heartbeat IPC: 0.287666 cumulative IPC: 0.255127 (Simulation time: 0 hr 29 min 45 sec) 
Heartbeat CPU 0 instructions: 90000000 cycles: 313235575 heartbeat IPC: 0.290841 cumulative IPC: 0.259104 (Simulation time: 0 hr 32 min 37 sec) 
Heartbeat CPU 0 instructions: 100000001 cycles: 347860100 heartbeat IPC: 0.288813 cumulative IPC: 0.2621 (Simulation time: 0 hr 35 min 30 sec) 
Heartbeat CPU 0 instructions: 110000002 cycles: 382187790 heartbeat IPC: 0.29131 cumulative IPC: 0.264755 (Simulation time: 0 hr 38 min 20 sec) 
Finished CPU 0 instructions: 100000004 cycles: 377708171 cumulative IPC: 0.264755 (Simulation time: 0 hr 38 min 20 sec) 

ChampSim completed all CPUs

Region of Interest Statistics

CPU 0 cumulative IPC: 0.264755 instructions: 100000004 cycles: 377708171
cpu0_DTLB TOTAL     ACCESS:   29843083  HIT:   29640437  MISS:     202646
cpu0_DTLB LOAD      ACCESS:   23900965  HIT:   23698319  MISS:     202646
cpu0_DTLB RFO       ACCESS:    5942118  HIT:    5942118  MISS:          0
cpu0_DTLB PREFETCH  ACCESS:          0  HIT:          0  MISS:          0
cpu0_DTLB WRITEBACK ACCESS:          0  HIT:          0  MISS:          0
cpu0_DTLB TRANSLATION ACCESS:          0  HIT:          0  MISS:          0
cpu0_DTLB PREFETCH  REQUESTED:          0  ISSUED:          0  USEFUL:          0  USELESS:          0
cpu0_DTLB AVERAGE MISS LATENCY: 158.118 cycles
cpu0_ITLB TOTAL     ACCESS:    1686218  HIT:    1686212  MISS:          6
cpu0_ITLB LOAD      ACCESS:    1686218  HIT:    1686212  MISS:          6
cpu0_ITLB RFO       ACCESS:          0  HIT:          0  MISS:          0
cpu0_ITLB PREFETCH  ACCESS:          0  HIT:          0  MISS:          0
cpu0_ITLB WRITEBACK ACCESS:          0  HIT:          0  MISS:          0
cpu0_ITLB TRANSLATION ACCESS:          0  HIT:          0  MISS:          0
cpu0_ITLB PREFETCH  REQUESTED:          0  ISSUED:          0  USEFUL:          0  USELESS:          0
cpu0_ITLB AVERAGE MISS LATENCY: 251 cycles
cpu0_L1I TOTAL     ACCESS:    3165488  HIT:    3165393  MISS:         95
cpu0_L1I LOAD      ACCESS:    3165488  HIT:    3165393  MISS:         95
cpu0_L1I RFO       ACCESS:          0  HIT:          0  MISS:          0
cpu0_L1I PREFETCH  ACCESS:          0  HIT:          0  MISS:          0
cpu0_L1I WRITEBACK ACCESS:          0  HIT:          0  MISS:          0
cpu0_L1I TRANSLATION ACCESS:          0  HIT:          0  MISS:          0
cpu0_L1I PREFETCH  REQUESTED:          0  ISSUED:          0  USEFUL:          0  USELESS:          0
cpu0_L1I AVERAGE MISS LATENCY: 414.537 cycles
cpu0_STLB TOTAL     ACCESS:     202652  HIT:      49544  MISS:     153108
cpu0_STLB LOAD      ACCESS:     202652  HIT:      49544  MISS:     153108
cpu0_STLB RFO       ACCESS:          0  HIT:          0  MISS:          0
cpu0_STLB PREFETCH  ACCESS:          0  HIT:          0  MISS:          0
cpu0_STLB WRITEBACK ACCESS:          0  HIT:          0  MISS:          0
cpu0_STLB TRANSLATION ACCESS:          0  HIT:          0  MISS:          0
cpu0_STLB PREFETCH  REQUESTED:          0  ISSUED:          0  USEFUL:          0  USELESS:          0
cpu0_STLB AVERAGE MISS LATENCY: 197.309 cycles
cpu0_L1D TOTAL     ACCESS:   29761841  HIT:   26413780  MISS:    3348061
cpu0_L1D LOAD      ACCESS:   18529906  HIT:   15184050  MISS:    3345856
cpu0_L1D RFO       ACCESS:   11079385  HIT:   11079365  MISS:         20
cpu0_L1D PREFETCH  ACCESS:          0  HIT:          0  MISS:          0
cpu0_L1D WRITEBACK ACCESS:          0  HIT:          0  MISS:          0
cpu0_L1D TRANSLATION ACCESS:     152550  HIT:     150365  MISS:       2185
cpu0_L1D PREFETCH  REQUESTED:          0  ISSUED:          0  USEFUL:          0  USELESS:          0
cpu0_L1D AVERAGE MISS LATENCY: 677.816 cycles
cpu0_L2C TOTAL     ACCESS:    4725127  HIT:    1561850  MISS:    3163277
cpu0_L2C LOAD      ACCESS:    3345951  HIT:     182784  MISS:    3163167
cpu0_L2C RFO       ACCESS:         20  HIT:          0  MISS:         20
cpu0_L2C PREFETCH  ACCESS:          0  HIT:          0  MISS:          0
cpu0_L2C WRITEBACK ACCESS:    1376971  HIT:    1376967  MISS:          4
cpu0_L2C TRANSLATION ACCESS:       2185  HIT:       2099  MISS:         86
cpu0_L2C PREFETCH  REQUESTED:          0  ISSUED:          0  USEFUL:          0  USELESS:          0
cpu0_L2C AVERAGE MISS LATENCY: 705.757 cycles
LLC TOTAL     ACCESS:    4538781  HIT:     678829  MISS:    3859952
LLC LOAD      ACCESS:    3163167  HIT:     582208  MISS:    2580959
LLC RFO       ACCESS:         20  HIT:          0  MISS:         20
LLC PREFETCH  ACCESS:          0  HIT:          0  MISS:          0
LLC WRITEBACK ACCESS:    1375508  HIT:      96581  MISS:    1278927
LLC TRANSLATION ACCESS:         86  HIT:         40  MISS:         46
LLC PREFETCH  REQUESTED:          0  ISSUED:          0  USEFUL:          0  USELESS:          0
LLC AVERAGE MISS LATENCY: 561.166 cycles
Ship++ misses: 91966
Hawkeye misses: 89534
Ship++ used: 994358
Hawkeye used: 3257493

DRAM Statistics
 CHANNEL 0
 RQ ROW_BUFFER_HIT:       8626  ROW_BUFFER_MISS:    2572399
 DBUS AVG_CONGESTED_CYCLE:    3.99783
 WQ ROW_BUFFER_HIT:      17990  ROW_BUFFER_MISS:    1352259  FULL:          0


CPU 0 Branch Prediction Accuracy: 90.9863% MPKI: 1.62566 Average ROB Occupancy at Mispredict: 227.416
Branch type MPKI
BRANCH_DIRECT_JUMP: 5e-05
BRANCH_INDIRECT: 0
BRANCH_CONDITIONAL: 1.62559
BRANCH_DIRECT_CALL: 1e-05
BRANCH_INDIRECT_CALL: 0
BRANCH_RETURN: 1e-05

