
*** ChampSim Multicore Out-of-Order Simulator ***

Warmup Instructions: 10000000
Simulation Instructions: 100000000
Number of CPUs: 1
Off-chip DRAM Size: 4 GiB Channels: 1 Width: 64-bit Data Rate: 3200 MT/s

VirtualMemory physical capacity: 8588881920 num_ppages: 2096895
VirtualMemory page size: 4096 log2_page_size: 12

CPU 0 runs /datasets/cs240c-wi22-a00-public/data/Assignment2/h264ref_351B.trace.xz
CPU 0 Bimodal branch predictor
Basic BTB sets: 1024 ways: 8 indirect buffer size: 4096 RAS size: 64
Initialize Hawkeye state
Initialize SRRIP state
Heartbeat CPU 0 instructions: 10000003 cycles: 3499507 heartbeat IPC: 2.85755 cumulative IPC: 2.85755 (Simulation time: 0 hr 0 min 43 sec) 

Warmup complete CPU 0 instructions: 10000003 cycles: 3499507 (Simulation time: 0 hr 0 min 43 sec) 

Heartbeat CPU 0 instructions: 20000000 cycles: 12268566 heartbeat IPC: 1.14037 cumulative IPC: 1.14037 (Simulation time: 0 hr 1 min 24 sec) 
Heartbeat CPU 0 instructions: 30000000 cycles: 18617781 heartbeat IPC: 1.575 cumulative IPC: 1.3229 (Simulation time: 0 hr 2 min 18 sec) 
Heartbeat CPU 0 instructions: 40000001 cycles: 24752618 heartbeat IPC: 1.63004 cumulative IPC: 1.41156 (Simulation time: 0 hr 3 min 15 sec) 
Heartbeat CPU 0 instructions: 50000000 cycles: 31384742 heartbeat IPC: 1.50781 cumulative IPC: 1.43445 (Simulation time: 0 hr 3 min 57 sec) 
Heartbeat CPU 0 instructions: 60000004 cycles: 39167262 heartbeat IPC: 1.28493 cumulative IPC: 1.40183 (Simulation time: 0 hr 4 min 40 sec) 
Heartbeat CPU 0 instructions: 70000001 cycles: 45241434 heartbeat IPC: 1.64631 cumulative IPC: 1.4374 (Simulation time: 0 hr 5 min 38 sec) 
Heartbeat CPU 0 instructions: 80000004 cycles: 51179973 heartbeat IPC: 1.68392 cumulative IPC: 1.46811 (Simulation time: 0 hr 6 min 34 sec) 
Heartbeat CPU 0 instructions: 90000004 cycles: 57927425 heartbeat IPC: 1.48204 cumulative IPC: 1.46983 (Simulation time: 0 hr 7 min 14 sec) 
Heartbeat CPU 0 instructions: 100000001 cycles: 65367424 heartbeat IPC: 1.34409 cumulative IPC: 1.45471 (Simulation time: 0 hr 8 min 2 sec) 
Heartbeat CPU 0 instructions: 110000001 cycles: 71432650 heartbeat IPC: 1.64874 cumulative IPC: 1.47204 (Simulation time: 0 hr 9 min 1 sec) 
Finished CPU 0 instructions: 100000003 cycles: 67933144 cumulative IPC: 1.47204 (Simulation time: 0 hr 9 min 1 sec) 

ChampSim completed all CPUs

Region of Interest Statistics

CPU 0 cumulative IPC: 1.47204 instructions: 100000003 cycles: 67933144
cpu0_DTLB TOTAL     ACCESS:   21999569  HIT:   21963676  MISS:      35893
cpu0_DTLB LOAD      ACCESS:   18622969  HIT:   18590184  MISS:      32785
cpu0_DTLB RFO       ACCESS:    3376600  HIT:    3373492  MISS:       3108
cpu0_DTLB PREFETCH  ACCESS:          0  HIT:          0  MISS:          0
cpu0_DTLB WRITEBACK ACCESS:          0  HIT:          0  MISS:          0
cpu0_DTLB TRANSLATION ACCESS:          0  HIT:          0  MISS:          0
cpu0_DTLB PREFETCH  REQUESTED:          0  ISSUED:          0  USEFUL:          0  USELESS:          0
cpu0_DTLB AVERAGE MISS LATENCY: 12.2663 cycles
cpu0_ITLB TOTAL     ACCESS:    6599804  HIT:    6599344  MISS:        460
cpu0_ITLB LOAD      ACCESS:    6599804  HIT:    6599344  MISS:        460
cpu0_ITLB RFO       ACCESS:          0  HIT:          0  MISS:          0
cpu0_ITLB PREFETCH  ACCESS:          0  HIT:          0  MISS:          0
cpu0_ITLB WRITEBACK ACCESS:          0  HIT:          0  MISS:          0
cpu0_ITLB TRANSLATION ACCESS:          0  HIT:          0  MISS:          0
cpu0_ITLB PREFETCH  REQUESTED:          0  ISSUED:          0  USEFUL:          0  USELESS:          0
cpu0_ITLB AVERAGE MISS LATENCY: 26.5326 cycles
cpu0_L1I TOTAL     ACCESS:    4925240  HIT:    4899826  MISS:      25414
cpu0_L1I LOAD      ACCESS:    4925240  HIT:    4899826  MISS:      25414
cpu0_L1I RFO       ACCESS:          0  HIT:          0  MISS:          0
cpu0_L1I PREFETCH  ACCESS:          0  HIT:          0  MISS:          0
cpu0_L1I WRITEBACK ACCESS:          0  HIT:          0  MISS:          0
cpu0_L1I TRANSLATION ACCESS:          0  HIT:          0  MISS:          0
cpu0_L1I PREFETCH  REQUESTED:          0  ISSUED:          0  USEFUL:          0  USELESS:          0
cpu0_L1I AVERAGE MISS LATENCY: 39.7865 cycles
cpu0_STLB TOTAL     ACCESS:      36353  HIT:      35221  MISS:       1132
cpu0_STLB LOAD      ACCESS:      33245  HIT:      32345  MISS:        900
cpu0_STLB RFO       ACCESS:       3108  HIT:       2876  MISS:        232
cpu0_STLB PREFETCH  ACCESS:          0  HIT:          0  MISS:          0
cpu0_STLB WRITEBACK ACCESS:          0  HIT:          0  MISS:          0
cpu0_STLB TRANSLATION ACCESS:          0  HIT:          0  MISS:          0
cpu0_STLB PREFETCH  REQUESTED:          0  ISSUED:          0  USEFUL:          0  USELESS:          0
cpu0_STLB AVERAGE MISS LATENCY: 109.864 cycles
cpu0_L1D TOTAL     ACCESS:   23787305  HIT:   23472969  MISS:     314336
cpu0_L1D LOAD      ACCESS:   17652224  HIT:   17425333  MISS:     226891
cpu0_L1D RFO       ACCESS:    6133985  HIT:    6046782  MISS:      87203
cpu0_L1D PREFETCH  ACCESS:          0  HIT:          0  MISS:          0
cpu0_L1D WRITEBACK ACCESS:          0  HIT:          0  MISS:          0
cpu0_L1D TRANSLATION ACCESS:       1096  HIT:        854  MISS:        242
cpu0_L1D PREFETCH  REQUESTED:          0  ISSUED:          0  USEFUL:          0  USELESS:          0
cpu0_L1D AVERAGE MISS LATENCY: 70.9239 cycles
cpu0_L2C TOTAL     ACCESS:     428265  HIT:     237306  MISS:     190959
cpu0_L2C LOAD      ACCESS:     252305  HIT:     142296  MISS:     110009
cpu0_L2C RFO       ACCESS:      87203  HIT:       6444  MISS:      80759
cpu0_L2C PREFETCH  ACCESS:          0  HIT:          0  MISS:          0
cpu0_L2C WRITEBACK ACCESS:      88515  HIT:      88356  MISS:        159
cpu0_L2C TRANSLATION ACCESS:        242  HIT:        210  MISS:         32
cpu0_L2C PREFETCH  REQUESTED:          0  ISSUED:          0  USEFUL:          0  USELESS:          0
cpu0_L2C AVERAGE MISS LATENCY: 102.4 cycles
LLC TOTAL     ACCESS:     266238  HIT:     184704  MISS:      81534
LLC LOAD      ACCESS:     110009  HIT:      63802  MISS:      46207
LLC RFO       ACCESS:      80759  HIT:      51751  MISS:      29008
LLC PREFETCH  ACCESS:          0  HIT:          0  MISS:          0
LLC WRITEBACK ACCESS:      75438  HIT:      69131  MISS:       6307
LLC TRANSLATION ACCESS:         32  HIT:         20  MISS:         12
LLC PREFETCH  REQUESTED:          0  ISSUED:          0  USEFUL:          0  USELESS:          0
LLC AVERAGE MISS LATENCY: 190.682 cycles
Ship++ misses: 2889
Hawkeye misses: 2948
Ship++ used: 31271
Hawkeye used: 37160

DRAM Statistics
 CHANNEL 0
 RQ ROW_BUFFER_HIT:      25317  ROW_BUFFER_MISS:      49879
 DBUS AVG_CONGESTED_CYCLE:    3.90026
 WQ ROW_BUFFER_HIT:       4012  ROW_BUFFER_MISS:      24094  FULL:        221


CPU 0 Branch Prediction Accuracy: 92.8368% MPKI: 5.81059 Average ROB Occupancy at Mispredict: 122.796
Branch type MPKI
BRANCH_DIRECT_JUMP: 0.00172
BRANCH_INDIRECT: 0.00314
BRANCH_CONDITIONAL: 5.80098
BRANCH_DIRECT_CALL: 0.00111
BRANCH_INDIRECT_CALL: 0.00157
BRANCH_RETURN: 0.00207

