
*** ChampSim Multicore Out-of-Order Simulator ***

Warmup Instructions: 10000000
Simulation Instructions: 100000000
Number of CPUs: 1
Off-chip DRAM Size: 4 GiB Channels: 1 Width: 64-bit Data Rate: 3200 MT/s

VirtualMemory physical capacity: 8588881920 num_ppages: 2096895
VirtualMemory page size: 4096 log2_page_size: 12

CPU 0 runs /datasets/cs240c-wi22-a00-public/data/Assignment2/hmmer_7B.trace.xz
CPU 0 Bimodal branch predictor
Basic BTB sets: 1024 ways: 8 indirect buffer size: 4096 RAS size: 64
Initialize Hawkeye state
Initialize SRRIP state
Heartbeat CPU 0 instructions: 10000004 cycles: 3986065 heartbeat IPC: 2.50874 cumulative IPC: 2.50874 (Simulation time: 0 hr 0 min 48 sec) 

Warmup complete CPU 0 instructions: 10000004 cycles: 3986065 (Simulation time: 0 hr 0 min 48 sec) 

Heartbeat CPU 0 instructions: 20000004 cycles: 9237293 heartbeat IPC: 1.90432 cumulative IPC: 1.90432 (Simulation time: 0 hr 1 min 58 sec) 
Heartbeat CPU 0 instructions: 30000001 cycles: 14056929 heartbeat IPC: 2.07484 cumulative IPC: 1.98593 (Simulation time: 0 hr 3 min 6 sec) 
Heartbeat CPU 0 instructions: 40000001 cycles: 18579860 heartbeat IPC: 2.21096 cumulative IPC: 2.05567 (Simulation time: 0 hr 4 min 14 sec) 
Heartbeat CPU 0 instructions: 50000000 cycles: 23806418 heartbeat IPC: 1.9133 cumulative IPC: 2.01813 (Simulation time: 0 hr 5 min 25 sec) 
Heartbeat CPU 0 instructions: 60000000 cycles: 28132387 heartbeat IPC: 2.31162 cumulative IPC: 2.07071 (Simulation time: 0 hr 6 min 29 sec) 
Heartbeat CPU 0 instructions: 70000003 cycles: 32453421 heartbeat IPC: 2.31426 cumulative IPC: 2.10768 (Simulation time: 0 hr 7 min 34 sec) 
Heartbeat CPU 0 instructions: 80000001 cycles: 36763134 heartbeat IPC: 2.32034 cumulative IPC: 2.13564 (Simulation time: 0 hr 8 min 40 sec) 
Heartbeat CPU 0 instructions: 90000004 cycles: 41082741 heartbeat IPC: 2.31503 cumulative IPC: 2.15653 (Simulation time: 0 hr 9 min 44 sec) 
Heartbeat CPU 0 instructions: 100000002 cycles: 45401806 heartbeat IPC: 2.31532 cumulative IPC: 2.17309 (Simulation time: 0 hr 10 min 51 sec) 
Heartbeat CPU 0 instructions: 110000001 cycles: 49730828 heartbeat IPC: 2.30999 cumulative IPC: 2.18604 (Simulation time: 0 hr 11 min 56 sec) 
Finished CPU 0 instructions: 100000002 cycles: 45744764 cumulative IPC: 2.18604 (Simulation time: 0 hr 11 min 56 sec) 

ChampSim completed all CPUs

Region of Interest Statistics

CPU 0 cumulative IPC: 2.18604 instructions: 100000002 cycles: 45744764
cpu0_DTLB TOTAL     ACCESS:   40544604  HIT:   40530450  MISS:      14154
cpu0_DTLB LOAD      ACCESS:   32389404  HIT:   32381689  MISS:       7715
cpu0_DTLB RFO       ACCESS:    8155200  HIT:    8148761  MISS:       6439
cpu0_DTLB PREFETCH  ACCESS:          0  HIT:          0  MISS:          0
cpu0_DTLB WRITEBACK ACCESS:          0  HIT:          0  MISS:          0
cpu0_DTLB TRANSLATION ACCESS:          0  HIT:          0  MISS:          0
cpu0_DTLB PREFETCH  REQUESTED:          0  ISSUED:          0  USEFUL:          0  USELESS:          0
cpu0_DTLB AVERAGE MISS LATENCY: 14.8641 cycles
cpu0_ITLB TOTAL     ACCESS:     800104  HIT:     800032  MISS:         72
cpu0_ITLB LOAD      ACCESS:     800104  HIT:     800032  MISS:         72
cpu0_ITLB RFO       ACCESS:          0  HIT:          0  MISS:          0
cpu0_ITLB PREFETCH  ACCESS:          0  HIT:          0  MISS:          0
cpu0_ITLB WRITEBACK ACCESS:          0  HIT:          0  MISS:          0
cpu0_ITLB TRANSLATION ACCESS:          0  HIT:          0  MISS:          0
cpu0_ITLB PREFETCH  REQUESTED:          0  ISSUED:          0  USEFUL:          0  USELESS:          0
cpu0_ITLB AVERAGE MISS LATENCY: 21 cycles
cpu0_L1I TOTAL     ACCESS:      62169  HIT:      62064  MISS:        105
cpu0_L1I LOAD      ACCESS:      62169  HIT:      62064  MISS:        105
cpu0_L1I RFO       ACCESS:          0  HIT:          0  MISS:          0
cpu0_L1I PREFETCH  ACCESS:          0  HIT:          0  MISS:          0
cpu0_L1I WRITEBACK ACCESS:          0  HIT:          0  MISS:          0
cpu0_L1I TRANSLATION ACCESS:          0  HIT:          0  MISS:          0
cpu0_L1I PREFETCH  REQUESTED:          0  ISSUED:          0  USEFUL:          0  USELESS:          0
cpu0_L1I AVERAGE MISS LATENCY: 102.333 cycles
cpu0_STLB TOTAL     ACCESS:      14226  HIT:      13771  MISS:        455
cpu0_STLB LOAD      ACCESS:       7787  HIT:       7779  MISS:          8
cpu0_STLB RFO       ACCESS:       6439  HIT:       5992  MISS:        447
cpu0_STLB PREFETCH  ACCESS:          0  HIT:          0  MISS:          0
cpu0_STLB WRITEBACK ACCESS:          0  HIT:          0  MISS:          0
cpu0_STLB TRANSLATION ACCESS:          0  HIT:          0  MISS:          0
cpu0_STLB PREFETCH  REQUESTED:          0  ISSUED:          0  USEFUL:          0  USELESS:          0
cpu0_STLB AVERAGE MISS LATENCY: 184.119 cycles
cpu0_L1D TOTAL     ACCESS:   33485889  HIT:   33015764  MISS:     470125
cpu0_L1D LOAD      ACCESS:   28673018  HIT:   28511624  MISS:     161394
cpu0_L1D RFO       ACCESS:    4812417  HIT:    4503709  MISS:     308708
cpu0_L1D PREFETCH  ACCESS:          0  HIT:          0  MISS:          0
cpu0_L1D WRITEBACK ACCESS:          0  HIT:          0  MISS:          0
cpu0_L1D TRANSLATION ACCESS:        454  HIT:        431  MISS:         23
cpu0_L1D PREFETCH  REQUESTED:          0  ISSUED:          0  USEFUL:          0  USELESS:          0
cpu0_L1D AVERAGE MISS LATENCY: 244.119 cycles
cpu0_L2C TOTAL     ACCESS:     777260  HIT:     472337  MISS:     304923
cpu0_L2C LOAD      ACCESS:     161499  HIT:     149264  MISS:      12235
cpu0_L2C RFO       ACCESS:     308708  HIT:      16075  MISS:     292633
cpu0_L2C PREFETCH  ACCESS:          0  HIT:          0  MISS:          0
cpu0_L2C WRITEBACK ACCESS:     307030  HIT:     306983  MISS:         47
cpu0_L2C TRANSLATION ACCESS:         23  HIT:         15  MISS:          8
cpu0_L2C PREFETCH  REQUESTED:          0  ISSUED:          0  USEFUL:          0  USELESS:          0
cpu0_L2C AVERAGE MISS LATENCY: 359.436 cycles
LLC TOTAL     ACCESS:     596424  HIT:     447248  MISS:     149176
LLC LOAD      ACCESS:      12234  HIT:      10966  MISS:       1268
LLC RFO       ACCESS:     292632  HIT:     210422  MISS:      82210
LLC PREFETCH  ACCESS:          0  HIT:          0  MISS:          0
LLC WRITEBACK ACCESS:     291550  HIT:     225854  MISS:      65696
LLC TRANSLATION ACCESS:          8  HIT:          6  MISS:          2
LLC PREFETCH  REQUESTED:          0  ISSUED:          0  USEFUL:          0  USELESS:          0
LLC AVERAGE MISS LATENCY: 691.688 cycles
Ship++ misses: 3580
Hawkeye misses: 3605
Ship++ used: 53585
Hawkeye used: 111826

DRAM Statistics
 CHANNEL 0
 RQ ROW_BUFFER_HIT:       1108  ROW_BUFFER_MISS:      82371
 DBUS AVG_CONGESTED_CYCLE:    3.99287
 WQ ROW_BUFFER_HIT:       4926  ROW_BUFFER_MISS:      75225  FULL:      14941


CPU 0 Branch Prediction Accuracy: 98.9368% MPKI: 0.40856 Average ROB Occupancy at Mispredict: 252.347
Branch type MPKI
BRANCH_DIRECT_JUMP: 0.00016
BRANCH_INDIRECT: 0.00157
BRANCH_CONDITIONAL: 0.40659
BRANCH_DIRECT_CALL: 9e-05
BRANCH_INDIRECT_CALL: 3e-05
BRANCH_RETURN: 0.00012

