
*** ChampSim Multicore Out-of-Order Simulator ***

Warmup Instructions: 10000000
Simulation Instructions: 100000000
Number of CPUs: 1
Off-chip DRAM Size: 4 GiB Channels: 1 Width: 64-bit Data Rate: 3200 MT/s

VirtualMemory physical capacity: 8588881920 num_ppages: 2096895
VirtualMemory page size: 4096 log2_page_size: 12

CPU 0 runs /datasets/cs240c-wi22-a00-public/data/Assignment2/leslie3d_1116B.trace.xz
CPU 0 Bimodal branch predictor
Basic BTB sets: 1024 ways: 8 indirect buffer size: 4096 RAS size: 64
Initialize Hawkeye state
Initialize SRRIP state
Heartbeat CPU 0 instructions: 10000000 cycles: 3692442 heartbeat IPC: 2.70823 cumulative IPC: 2.70823 (Simulation time: 0 hr 0 min 44 sec) 

Warmup complete CPU 0 instructions: 10000005 cycles: 3692443 (Simulation time: 0 hr 0 min 44 sec) 

Heartbeat CPU 0 instructions: 20000000 cycles: 12743923 heartbeat IPC: 1.10479 cumulative IPC: 1.10479 (Simulation time: 0 hr 2 min 1 sec) 
Heartbeat CPU 0 instructions: 30000004 cycles: 21954014 heartbeat IPC: 1.08577 cumulative IPC: 1.0952 (Simulation time: 0 hr 3 min 20 sec) 
Heartbeat CPU 0 instructions: 40000003 cycles: 33708674 heartbeat IPC: 0.850726 cumulative IPC: 0.999459 (Simulation time: 0 hr 4 min 44 sec) 
Heartbeat CPU 0 instructions: 50000000 cycles: 55168866 heartbeat IPC: 0.465979 cumulative IPC: 0.777055 (Simulation time: 0 hr 6 min 47 sec) 
Heartbeat CPU 0 instructions: 60000001 cycles: 107828235 heartbeat IPC: 0.1899 cumulative IPC: 0.480142 (Simulation time: 0 hr 11 min 3 sec) 
Heartbeat CPU 0 instructions: 70000000 cycles: 122238005 heartbeat IPC: 0.693974 cumulative IPC: 0.506134 (Simulation time: 0 hr 12 min 46 sec) 
Heartbeat CPU 0 instructions: 80000001 cycles: 134949915 heartbeat IPC: 0.786664 cumulative IPC: 0.533303 (Simulation time: 0 hr 14 min 23 sec) 
Heartbeat CPU 0 instructions: 90000004 cycles: 148151987 heartbeat IPC: 0.757457 cumulative IPC: 0.553788 (Simulation time: 0 hr 16 min 2 sec) 
Heartbeat CPU 0 instructions: 100000002 cycles: 160997660 heartbeat IPC: 0.778472 cumulative IPC: 0.572136 (Simulation time: 0 hr 17 min 40 sec) 
Heartbeat CPU 0 instructions: 110000000 cycles: 178465727 heartbeat IPC: 0.572473 cumulative IPC: 0.57217 (Simulation time: 0 hr 19 min 28 sec) 
Finished CPU 0 instructions: 100000000 cycles: 174773285 cumulative IPC: 0.57217 (Simulation time: 0 hr 19 min 28 sec) 

ChampSim completed all CPUs

Region of Interest Statistics

CPU 0 cumulative IPC: 0.57217 instructions: 100000000 cycles: 174773285
cpu0_DTLB TOTAL     ACCESS:   25743510  HIT:   25677799  MISS:      65711
cpu0_DTLB LOAD      ACCESS:   21129040  HIT:   21077378  MISS:      51662
cpu0_DTLB RFO       ACCESS:    4614470  HIT:    4600421  MISS:      14049
cpu0_DTLB PREFETCH  ACCESS:          0  HIT:          0  MISS:          0
cpu0_DTLB WRITEBACK ACCESS:          0  HIT:          0  MISS:          0
cpu0_DTLB TRANSLATION ACCESS:          0  HIT:          0  MISS:          0
cpu0_DTLB PREFETCH  REQUESTED:          0  ISSUED:          0  USEFUL:          0  USELESS:          0
cpu0_DTLB AVERAGE MISS LATENCY: 83.6654 cycles
cpu0_ITLB TOTAL     ACCESS:    2862058  HIT:    2862040  MISS:         18
cpu0_ITLB LOAD      ACCESS:    2862058  HIT:    2862040  MISS:         18
cpu0_ITLB RFO       ACCESS:          0  HIT:          0  MISS:          0
cpu0_ITLB PREFETCH  ACCESS:          0  HIT:          0  MISS:          0
cpu0_ITLB WRITEBACK ACCESS:          0  HIT:          0  MISS:          0
cpu0_ITLB TRANSLATION ACCESS:          0  HIT:          0  MISS:          0
cpu0_ITLB PREFETCH  REQUESTED:          0  ISSUED:          0  USEFUL:          0  USELESS:          0
cpu0_ITLB AVERAGE MISS LATENCY: 380.111 cycles
cpu0_L1I TOTAL     ACCESS:    1780452  HIT:    1779980  MISS:        472
cpu0_L1I LOAD      ACCESS:    1780452  HIT:    1779980  MISS:        472
cpu0_L1I RFO       ACCESS:          0  HIT:          0  MISS:          0
cpu0_L1I PREFETCH  ACCESS:          0  HIT:          0  MISS:          0
cpu0_L1I WRITEBACK ACCESS:          0  HIT:          0  MISS:          0
cpu0_L1I TRANSLATION ACCESS:          0  HIT:          0  MISS:          0
cpu0_L1I PREFETCH  REQUESTED:          0  ISSUED:          0  USEFUL:          0  USELESS:          0
cpu0_L1I AVERAGE MISS LATENCY: 350.693 cycles
cpu0_STLB TOTAL     ACCESS:      65729  HIT:      34105  MISS:      31624
cpu0_STLB LOAD      ACCESS:      51680  HIT:      28214  MISS:      23466
cpu0_STLB RFO       ACCESS:      14049  HIT:       5891  MISS:       8158
cpu0_STLB PREFETCH  ACCESS:          0  HIT:          0  MISS:          0
cpu0_STLB WRITEBACK ACCESS:          0  HIT:          0  MISS:          0
cpu0_STLB TRANSLATION ACCESS:          0  HIT:          0  MISS:          0
cpu0_STLB PREFETCH  REQUESTED:          0  ISSUED:          0  USEFUL:          0  USELESS:          0
cpu0_STLB AVERAGE MISS LATENCY: 155.343 cycles
cpu0_L1D TOTAL     ACCESS:   24611786  HIT:   21201669  MISS:    3410117
cpu0_L1D LOAD      ACCESS:   16452874  HIT:   13835741  MISS:    2617133
cpu0_L1D RFO       ACCESS:    8129593  HIT:    7340249  MISS:     789344
cpu0_L1D PREFETCH  ACCESS:          0  HIT:          0  MISS:          0
cpu0_L1D WRITEBACK ACCESS:          0  HIT:          0  MISS:          0
cpu0_L1D TRANSLATION ACCESS:      29319  HIT:      25679  MISS:       3640
cpu0_L1D PREFETCH  REQUESTED:          0  ISSUED:          0  USEFUL:          0  USELESS:          0
cpu0_L1D AVERAGE MISS LATENCY: 471.824 cycles
cpu0_L2C TOTAL     ACCESS:    4454978  HIT:    1718322  MISS:    2736656
cpu0_L2C LOAD      ACCESS:    2617559  HIT:     507662  MISS:    2109897
cpu0_L2C RFO       ACCESS:     789268  HIT:     162782  MISS:     626486
cpu0_L2C PREFETCH  ACCESS:          0  HIT:          0  MISS:          0
cpu0_L2C WRITEBACK ACCESS:    1044511  HIT:    1044336  MISS:        175
cpu0_L2C TRANSLATION ACCESS:       3640  HIT:       3542  MISS:         98
cpu0_L2C PREFETCH  REQUESTED:          0  ISSUED:          0  USEFUL:          0  USELESS:          0
cpu0_L2C AVERAGE MISS LATENCY: 574.257 cycles
LLC TOTAL     ACCESS:    3497196  HIT:     804703  MISS:    2692493
LLC LOAD      ACCESS:    2109897  HIT:     512998  MISS:    1596899
LLC RFO       ACCESS:     626486  HIT:     110894  MISS:     515592
LLC PREFETCH  ACCESS:          0  HIT:          0  MISS:          0
LLC WRITEBACK ACCESS:     760715  HIT:     180771  MISS:     579944
LLC TRANSLATION ACCESS:         98  HIT:         40  MISS:         58
LLC PREFETCH  REQUESTED:          0  ISSUED:          0  USEFUL:          0  USELESS:          0
LLC AVERAGE MISS LATENCY: 562.298 cycles
Ship++ misses: 73607
Hawkeye misses: 71440
Ship++ used: 1120027
Hawkeye used: 1724448

DRAM Statistics
 CHANNEL 0
 RQ ROW_BUFFER_HIT:     219567  ROW_BUFFER_MISS:    1892685
 DBUS AVG_CONGESTED_CYCLE:    3.95884
 WQ ROW_BUFFER_HIT:      60340  ROW_BUFFER_MISS:     599801  FULL:      26796


CPU 0 Branch Prediction Accuracy: 96.8713% MPKI: 1.55303 Average ROB Occupancy at Mispredict: 298.708
Branch type MPKI
BRANCH_DIRECT_JUMP: 0.00018
BRANCH_INDIRECT: 0
BRANCH_CONDITIONAL: 1.55065
BRANCH_DIRECT_CALL: 0.00113
BRANCH_INDIRECT_CALL: 0
BRANCH_RETURN: 0.00107

