
*** ChampSim Multicore Out-of-Order Simulator ***

Warmup Instructions: 10000000
Simulation Instructions: 100000000
Number of CPUs: 1
Off-chip DRAM Size: 4 GiB Channels: 1 Width: 64-bit Data Rate: 3200 MT/s

VirtualMemory physical capacity: 8588881920 num_ppages: 2096895
VirtualMemory page size: 4096 log2_page_size: 12

CPU 0 runs /datasets/cs240c-wi22-a00-public/data/Assignment2/libquantum_964B.trace.xz
CPU 0 Bimodal branch predictor
Basic BTB sets: 1024 ways: 8 indirect buffer size: 4096 RAS size: 64
Initialize Hawkeye state
Initialize SRRIP state
Heartbeat CPU 0 instructions: 10000001 cycles: 2500058 heartbeat IPC: 3.99991 cumulative IPC: 3.99991 (Simulation time: 0 hr 0 min 20 sec) 

Warmup complete CPU 0 instructions: 10000001 cycles: 2500058 (Simulation time: 0 hr 0 min 20 sec) 

Heartbeat CPU 0 instructions: 20000002 cycles: 18488577 heartbeat IPC: 0.625449 cumulative IPC: 0.625449 (Simulation time: 0 hr 1 min 13 sec) 
Heartbeat CPU 0 instructions: 30000004 cycles: 42523601 heartbeat IPC: 0.41606 cumulative IPC: 0.499706 (Simulation time: 0 hr 3 min 8 sec) 
Heartbeat CPU 0 instructions: 40000001 cycles: 64958355 heartbeat IPC: 0.445737 cumulative IPC: 0.48032 (Simulation time: 0 hr 5 min 19 sec) 
Heartbeat CPU 0 instructions: 50000003 cycles: 71064438 heartbeat IPC: 1.63771 cumulative IPC: 0.583393 (Simulation time: 0 hr 6 min 4 sec) 
Heartbeat CPU 0 instructions: 60000004 cycles: 81867749 heartbeat IPC: 0.925642 cumulative IPC: 0.629979 (Simulation time: 0 hr 6 min 48 sec) 
Heartbeat CPU 0 instructions: 70000003 cycles: 97618817 heartbeat IPC: 0.634878 cumulative IPC: 0.63079 (Simulation time: 0 hr 7 min 35 sec) 
Heartbeat CPU 0 instructions: 80000002 cycles: 125024980 heartbeat IPC: 0.364881 cumulative IPC: 0.571312 (Simulation time: 0 hr 9 min 32 sec) 
Heartbeat CPU 0 instructions: 90000001 cycles: 142176941 heartbeat IPC: 0.583024 cumulative IPC: 0.57275 (Simulation time: 0 hr 11 min 1 sec) 
Heartbeat CPU 0 instructions: 100000001 cycles: 147103672 heartbeat IPC: 2.02974 cumulative IPC: 0.622391 (Simulation time: 0 hr 11 min 40 sec) 
Heartbeat CPU 0 instructions: 110000003 cycles: 171991851 heartbeat IPC: 0.401797 cumulative IPC: 0.589999 (Simulation time: 0 hr 13 min 44 sec) 
Finished CPU 0 instructions: 100000002 cycles: 169491793 cumulative IPC: 0.589999 (Simulation time: 0 hr 13 min 44 sec) 

ChampSim completed all CPUs

Region of Interest Statistics

CPU 0 cumulative IPC: 0.589999 instructions: 100000002 cycles: 169491793
cpu0_DTLB TOTAL     ACCESS:    9116146  HIT:    9063148  MISS:      52998
cpu0_DTLB LOAD      ACCESS:    6239744  HIT:    6208553  MISS:      31191
cpu0_DTLB RFO       ACCESS:    2876402  HIT:    2854595  MISS:      21807
cpu0_DTLB PREFETCH  ACCESS:          0  HIT:          0  MISS:          0
cpu0_DTLB WRITEBACK ACCESS:          0  HIT:          0  MISS:          0
cpu0_DTLB TRANSLATION ACCESS:          0  HIT:          0  MISS:          0
cpu0_DTLB PREFETCH  REQUESTED:          0  ISSUED:          0  USEFUL:          0  USELESS:          0
cpu0_DTLB AVERAGE MISS LATENCY: 38.4476 cycles
cpu0_ITLB TOTAL     ACCESS:    1925701  HIT:    1925700  MISS:          1
cpu0_ITLB LOAD      ACCESS:    1925701  HIT:    1925700  MISS:          1
cpu0_ITLB RFO       ACCESS:          0  HIT:          0  MISS:          0
cpu0_ITLB PREFETCH  ACCESS:          0  HIT:          0  MISS:          0
cpu0_ITLB WRITEBACK ACCESS:          0  HIT:          0  MISS:          0
cpu0_ITLB TRANSLATION ACCESS:          0  HIT:          0  MISS:          0
cpu0_ITLB PREFETCH  REQUESTED:          0  ISSUED:          0  USEFUL:          0  USELESS:          0
cpu0_ITLB AVERAGE MISS LATENCY: 368 cycles
cpu0_L1I TOTAL     ACCESS:         11  HIT:          7  MISS:          4
cpu0_L1I LOAD      ACCESS:         11  HIT:          7  MISS:          4
cpu0_L1I RFO       ACCESS:          0  HIT:          0  MISS:          0
cpu0_L1I PREFETCH  ACCESS:          0  HIT:          0  MISS:          0
cpu0_L1I WRITEBACK ACCESS:          0  HIT:          0  MISS:          0
cpu0_L1I TRANSLATION ACCESS:          0  HIT:          0  MISS:          0
cpu0_L1I PREFETCH  REQUESTED:          0  ISSUED:          0  USEFUL:          0  USELESS:          0
cpu0_L1I AVERAGE MISS LATENCY: 194 cycles
cpu0_STLB TOTAL     ACCESS:      52999  HIT:          0  MISS:      52999
cpu0_STLB LOAD      ACCESS:      31192  HIT:          0  MISS:      31192
cpu0_STLB RFO       ACCESS:      21807  HIT:          0  MISS:      21807
cpu0_STLB PREFETCH  ACCESS:          0  HIT:          0  MISS:          0
cpu0_STLB WRITEBACK ACCESS:          0  HIT:          0  MISS:          0
cpu0_STLB TRANSLATION ACCESS:          0  HIT:          0  MISS:          0
cpu0_STLB PREFETCH  REQUESTED:          0  ISSUED:          0  USEFUL:          0  USELESS:          0
cpu0_STLB AVERAGE MISS LATENCY: 29.4538 cycles
cpu0_L1D TOTAL     ACCESS:    9384432  HIT:    5993999  MISS:    3390433
cpu0_L1D LOAD      ACCESS:    3615704  HIT:     225332  MISS:    3390372
cpu0_L1D RFO       ACCESS:    5715730  HIT:    5715706  MISS:         24
cpu0_L1D PREFETCH  ACCESS:          0  HIT:          0  MISS:          0
cpu0_L1D WRITEBACK ACCESS:          0  HIT:          0  MISS:          0
cpu0_L1D TRANSLATION ACCESS:      52998  HIT:      52961  MISS:         37
cpu0_L1D PREFETCH  REQUESTED:          0  ISSUED:          0  USEFUL:          0  USELESS:          0
cpu0_L1D AVERAGE MISS LATENCY: 425.617 cycles
cpu0_L2C TOTAL     ACCESS:    4919963  HIT:    1529526  MISS:    3390437
cpu0_L2C LOAD      ACCESS:    3390376  HIT:          0  MISS:    3390376
cpu0_L2C RFO       ACCESS:         24  HIT:          0  MISS:         24
cpu0_L2C PREFETCH  ACCESS:          0  HIT:          0  MISS:          0
cpu0_L2C WRITEBACK ACCESS:    1529526  HIT:    1529526  MISS:          0
cpu0_L2C TRANSLATION ACCESS:         37  HIT:          0  MISS:         37
cpu0_L2C PREFETCH  REQUESTED:          0  ISSUED:          0  USEFUL:          0  USELESS:          0
cpu0_L2C AVERAGE MISS LATENCY: 414.614 cycles
LLC TOTAL     ACCESS:    4913651  HIT:     245426  MISS:    4668225
LLC LOAD      ACCESS:    3390376  HIT:     136491  MISS:    3253885
LLC RFO       ACCESS:         24  HIT:         24  MISS:          0
LLC PREFETCH  ACCESS:          0  HIT:          0  MISS:          0
LLC WRITEBACK ACCESS:    1523214  HIT:     108904  MISS:    1414310
LLC TRANSLATION ACCESS:         37  HIT:          7  MISS:         30
LLC PREFETCH  REQUESTED:          0  ISSUED:          0  USEFUL:          0  USELESS:          0
LLC AVERAGE MISS LATENCY: 285.867 cycles
Ship++ misses: 108891
Hawkeye misses: 110198
Ship++ used: 1054741
Hawkeye used: 4124056

DRAM Statistics
 CHANNEL 0
 RQ ROW_BUFFER_HIT:    1781319  ROW_BUFFER_MISS:    1472596
 DBUS AVG_CONGESTED_CYCLE:    3.89767
 WQ ROW_BUFFER_HIT:     255235  ROW_BUFFER_MISS:    1219412  FULL:     253248


CPU 0 Branch Prediction Accuracy: 98.7463% MPKI: 2.70066 Average ROB Occupancy at Mispredict: 44.7787
Branch type MPKI
BRANCH_DIRECT_JUMP: 1e-05
BRANCH_INDIRECT: 0
BRANCH_CONDITIONAL: 2.70053
BRANCH_DIRECT_CALL: 6e-05
BRANCH_INDIRECT_CALL: 0
BRANCH_RETURN: 6e-05

