
*** ChampSim Multicore Out-of-Order Simulator ***

Warmup Instructions: 10000000
Simulation Instructions: 100000000
Number of CPUs: 1
Off-chip DRAM Size: 4 GiB Channels: 1 Width: 64-bit Data Rate: 3200 MT/s

VirtualMemory physical capacity: 8588881920 num_ppages: 2096895
VirtualMemory page size: 4096 log2_page_size: 12

CPU 0 runs /datasets/cs240c-wi22-a00-public/data/Assignment2/libquantum_1210B.trace.xz
CPU 0 Bimodal branch predictor
Basic BTB sets: 1024 ways: 8 indirect buffer size: 4096 RAS size: 64
Initialize Hawkeye state
Initialize SRRIP state
Heartbeat CPU 0 instructions: 10000001 cycles: 2500056 heartbeat IPC: 3.99991 cumulative IPC: 3.99991 (Simulation time: 0 hr 0 min 23 sec) 

Warmup complete CPU 0 instructions: 10000001 cycles: 2500056 (Simulation time: 0 hr 0 min 23 sec) 

Heartbeat CPU 0 instructions: 20000000 cycles: 43962789 heartbeat IPC: 0.24118 cumulative IPC: 0.24118 (Simulation time: 0 hr 1 min 47 sec) 
Heartbeat CPU 0 instructions: 30000003 cycles: 82700825 heartbeat IPC: 0.258144 cumulative IPC: 0.249374 (Simulation time: 0 hr 3 min 11 sec) 
Heartbeat CPU 0 instructions: 40000002 cycles: 88180620 heartbeat IPC: 1.82489 cumulative IPC: 0.350138 (Simulation time: 0 hr 3 min 52 sec) 
Heartbeat CPU 0 instructions: 50000000 cycles: 104985950 heartbeat IPC: 0.595049 cumulative IPC: 0.390298 (Simulation time: 0 hr 4 min 43 sec) 
Heartbeat CPU 0 instructions: 60000001 cycles: 150905026 heartbeat IPC: 0.217774 cumulative IPC: 0.336916 (Simulation time: 0 hr 6 min 3 sec) 
Heartbeat CPU 0 instructions: 70000004 cycles: 190441460 heartbeat IPC: 0.252931 cumulative IPC: 0.319248 (Simulation time: 0 hr 7 min 18 sec) 
Heartbeat CPU 0 instructions: 80000001 cycles: 228709907 heartbeat IPC: 0.261312 cumulative IPC: 0.309447 (Simulation time: 0 hr 8 min 32 sec) 
Heartbeat CPU 0 instructions: 90000001 cycles: 271122828 heartbeat IPC: 0.235777 cumulative IPC: 0.297815 (Simulation time: 0 hr 9 min 49 sec) 
Heartbeat CPU 0 instructions: 100000002 cycles: 310126257 heartbeat IPC: 0.256388 cumulative IPC: 0.292563 (Simulation time: 0 hr 11 min 6 sec) 
Heartbeat CPU 0 instructions: 110000001 cycles: 315075033 heartbeat IPC: 2.0207 cumulative IPC: 0.319923 (Simulation time: 0 hr 11 min 44 sec) 
Finished CPU 0 instructions: 100000000 cycles: 312574977 cumulative IPC: 0.319923 (Simulation time: 0 hr 11 min 44 sec) 

ChampSim completed all CPUs

Region of Interest Statistics

CPU 0 cumulative IPC: 0.319923 instructions: 100000000 cycles: 312574977
cpu0_DTLB TOTAL     ACCESS:   11098088  HIT:   11051085  MISS:      47003
cpu0_DTLB LOAD      ACCESS:    9243625  HIT:    9196628  MISS:      46997
cpu0_DTLB RFO       ACCESS:    1854463  HIT:    1854457  MISS:          6
cpu0_DTLB PREFETCH  ACCESS:          0  HIT:          0  MISS:          0
cpu0_DTLB WRITEBACK ACCESS:          0  HIT:          0  MISS:          0
cpu0_DTLB TRANSLATION ACCESS:          0  HIT:          0  MISS:          0
cpu0_DTLB PREFETCH  REQUESTED:          0  ISSUED:          0  USEFUL:          0  USELESS:          0
cpu0_DTLB AVERAGE MISS LATENCY: 34.5437 cycles
cpu0_ITLB TOTAL     ACCESS:    4336816  HIT:    4336812  MISS:          4
cpu0_ITLB LOAD      ACCESS:    4336816  HIT:    4336812  MISS:          4
cpu0_ITLB RFO       ACCESS:          0  HIT:          0  MISS:          0
cpu0_ITLB PREFETCH  ACCESS:          0  HIT:          0  MISS:          0
cpu0_ITLB WRITEBACK ACCESS:          0  HIT:          0  MISS:          0
cpu0_ITLB TRANSLATION ACCESS:          0  HIT:          0  MISS:          0
cpu0_ITLB PREFETCH  REQUESTED:          0  ISSUED:          0  USEFUL:          0  USELESS:          0
cpu0_ITLB AVERAGE MISS LATENCY: 267.25 cycles
cpu0_L1I TOTAL     ACCESS:         38  HIT:         18  MISS:         20
cpu0_L1I LOAD      ACCESS:         38  HIT:         18  MISS:         20
cpu0_L1I RFO       ACCESS:          0  HIT:          0  MISS:          0
cpu0_L1I PREFETCH  ACCESS:          0  HIT:          0  MISS:          0
cpu0_L1I WRITEBACK ACCESS:          0  HIT:          0  MISS:          0
cpu0_L1I TRANSLATION ACCESS:          0  HIT:          0  MISS:          0
cpu0_L1I PREFETCH  REQUESTED:          0  ISSUED:          0  USEFUL:          0  USELESS:          0
cpu0_L1I AVERAGE MISS LATENCY: 203.3 cycles
cpu0_STLB TOTAL     ACCESS:      47007  HIT:          0  MISS:      47007
cpu0_STLB LOAD      ACCESS:      47001  HIT:          0  MISS:      47001
cpu0_STLB RFO       ACCESS:          6  HIT:          0  MISS:          6
cpu0_STLB PREFETCH  ACCESS:          0  HIT:          0  MISS:          0
cpu0_STLB WRITEBACK ACCESS:          0  HIT:          0  MISS:          0
cpu0_STLB TRANSLATION ACCESS:          0  HIT:          0  MISS:          0
cpu0_STLB PREFETCH  REQUESTED:          0  ISSUED:          0  USEFUL:          0  USELESS:          0
cpu0_STLB AVERAGE MISS LATENCY: 25.5635 cycles
cpu0_L1D TOTAL     ACCESS:    7109385  HIT:    4102581  MISS:    3006804
cpu0_L1D LOAD      ACCESS:    4891978  HIT:    1885232  MISS:    3006746
cpu0_L1D RFO       ACCESS:    2170399  HIT:    2170377  MISS:         22
cpu0_L1D PREFETCH  ACCESS:          0  HIT:          0  MISS:          0
cpu0_L1D WRITEBACK ACCESS:          0  HIT:          0  MISS:          0
cpu0_L1D TRANSLATION ACCESS:      47008  HIT:      46972  MISS:         36
cpu0_L1D PREFETCH  REQUESTED:          0  ISSUED:          0  USEFUL:          0  USELESS:          0
cpu0_L1D AVERAGE MISS LATENCY: 218.373 cycles
cpu0_L2C TOTAL     ACCESS:    4045647  HIT:    1038823  MISS:    3006824
cpu0_L2C LOAD      ACCESS:    3006766  HIT:          0  MISS:    3006766
cpu0_L2C RFO       ACCESS:         22  HIT:          0  MISS:         22
cpu0_L2C PREFETCH  ACCESS:          0  HIT:          0  MISS:          0
cpu0_L2C WRITEBACK ACCESS:    1038823  HIT:    1038823  MISS:          0
cpu0_L2C TRANSLATION ACCESS:         36  HIT:          0  MISS:         36
cpu0_L2C PREFETCH  REQUESTED:          0  ISSUED:          0  USEFUL:          0  USELESS:          0
cpu0_L2C AVERAGE MISS LATENCY: 207.37 cycles
LLC TOTAL     ACCESS:    4049066  HIT:     178116  MISS:    3870950
LLC LOAD      ACCESS:    3006766  HIT:      86966  MISS:    2919800
LLC RFO       ACCESS:         22  HIT:          6  MISS:         16
LLC PREFETCH  ACCESS:          0  HIT:          0  MISS:          0
LLC WRITEBACK ACCESS:    1042242  HIT:      91142  MISS:     951100
LLC TRANSLATION ACCESS:         36  HIT:          2  MISS:         34
LLC PREFETCH  REQUESTED:          0  ISSUED:          0  USEFUL:          0  USELESS:          0
LLC AVERAGE MISS LATENCY: 144.765 cycles
Ship++ misses: 97342
Hawkeye misses: 97881
Ship++ used: 1182993
Hawkeye used: 3042418

DRAM Statistics
 CHANNEL 0
 RQ ROW_BUFFER_HIT:    1428795  ROW_BUFFER_MISS:    1491054
 DBUS AVG_CONGESTED_CYCLE:    3.75999
 WQ ROW_BUFFER_HIT:     381933  ROW_BUFFER_MISS:     642443  FULL:      21125


CPU 0 Branch Prediction Accuracy: 89.9607% MPKI: 24.1485 Average ROB Occupancy at Mispredict: 2.8332
Branch type MPKI
BRANCH_DIRECT_JUMP: 4e-05
BRANCH_INDIRECT: 0
BRANCH_CONDITIONAL: 24.1482
BRANCH_DIRECT_CALL: 0.00011
BRANCH_INDIRECT_CALL: 0
BRANCH_RETURN: 0.00012

