
*** ChampSim Multicore Out-of-Order Simulator ***

Warmup Instructions: 10000000
Simulation Instructions: 100000000
Number of CPUs: 1
Off-chip DRAM Size: 4 GiB Channels: 1 Width: 64-bit Data Rate: 3200 MT/s

VirtualMemory physical capacity: 8588881920 num_ppages: 2096895
VirtualMemory page size: 4096 log2_page_size: 12

CPU 0 runs /datasets/cs240c-wi22-a00-public/data/Assignment2/perlbench_135B.trace.xz
CPU 0 Bimodal branch predictor
Basic BTB sets: 1024 ways: 8 indirect buffer size: 4096 RAS size: 64
Initialize Hawkeye state
Initialize SRRIP state
Heartbeat CPU 0 instructions: 10000000 cycles: 2501133 heartbeat IPC: 3.99819 cumulative IPC: 3.99819 (Simulation time: 0 hr 0 min 29 sec) 

Warmup complete CPU 0 instructions: 10000004 cycles: 2501134 (Simulation time: 0 hr 0 min 29 sec) 

Heartbeat CPU 0 instructions: 20000003 cycles: 16331976 heartbeat IPC: 0.723022 cumulative IPC: 0.723022 (Simulation time: 0 hr 1 min 13 sec) 
Heartbeat CPU 0 instructions: 30000004 cycles: 29105011 heartbeat IPC: 0.782899 cumulative IPC: 0.75177 (Simulation time: 0 hr 1 min 55 sec) 
Heartbeat CPU 0 instructions: 40000001 cycles: 40547513 heartbeat IPC: 0.873934 cumulative IPC: 0.788511 (Simulation time: 0 hr 2 min 34 sec) 
Heartbeat CPU 0 instructions: 50000000 cycles: 53168454 heartbeat IPC: 0.792334 cumulative IPC: 0.789463 (Simulation time: 0 hr 3 min 15 sec) 
Heartbeat CPU 0 instructions: 60000000 cycles: 64718265 heartbeat IPC: 0.865815 cumulative IPC: 0.803637 (Simulation time: 0 hr 3 min 52 sec) 
Heartbeat CPU 0 instructions: 70000001 cycles: 77634984 heartbeat IPC: 0.77419 cumulative IPC: 0.798575 (Simulation time: 0 hr 4 min 31 sec) 
Heartbeat CPU 0 instructions: 80000000 cycles: 88577750 heartbeat IPC: 0.913846 cumulative IPC: 0.813229 (Simulation time: 0 hr 5 min 6 sec) 
Heartbeat CPU 0 instructions: 90000004 cycles: 99453535 heartbeat IPC: 0.919474 cumulative IPC: 0.825147 (Simulation time: 0 hr 5 min 43 sec) 
Heartbeat CPU 0 instructions: 100000000 cycles: 112970703 heartbeat IPC: 0.7398 cumulative IPC: 0.814704 (Simulation time: 0 hr 6 min 25 sec) 
Heartbeat CPU 0 instructions: 110000000 cycles: 126271968 heartbeat IPC: 0.751808 cumulative IPC: 0.807945 (Simulation time: 0 hr 7 min 8 sec) 
Finished CPU 0 instructions: 100000000 cycles: 123770836 cumulative IPC: 0.807945 (Simulation time: 0 hr 7 min 8 sec) 

ChampSim completed all CPUs

Region of Interest Statistics

CPU 0 cumulative IPC: 0.807945 instructions: 100000000 cycles: 123770836
cpu0_DTLB TOTAL     ACCESS:   24834247  HIT:   24177504  MISS:     656743
cpu0_DTLB LOAD      ACCESS:   16163549  HIT:   15592113  MISS:     571436
cpu0_DTLB RFO       ACCESS:    8670698  HIT:    8585391  MISS:      85307
cpu0_DTLB PREFETCH  ACCESS:          0  HIT:          0  MISS:          0
cpu0_DTLB WRITEBACK ACCESS:          0  HIT:          0  MISS:          0
cpu0_DTLB TRANSLATION ACCESS:          0  HIT:          0  MISS:          0
cpu0_DTLB PREFETCH  REQUESTED:          0  ISSUED:          0  USEFUL:          0  USELESS:          0
cpu0_DTLB AVERAGE MISS LATENCY: 9.30744 cycles
cpu0_ITLB TOTAL     ACCESS:    8520332  HIT:    8442168  MISS:      78164
cpu0_ITLB LOAD      ACCESS:    8520332  HIT:    8442168  MISS:      78164
cpu0_ITLB RFO       ACCESS:          0  HIT:          0  MISS:          0
cpu0_ITLB PREFETCH  ACCESS:          0  HIT:          0  MISS:          0
cpu0_ITLB WRITEBACK ACCESS:          0  HIT:          0  MISS:          0
cpu0_ITLB TRANSLATION ACCESS:          0  HIT:          0  MISS:          0
cpu0_ITLB PREFETCH  REQUESTED:          0  ISSUED:          0  USEFUL:          0  USELESS:          0
cpu0_ITLB AVERAGE MISS LATENCY: 9.1144 cycles
cpu0_L1I TOTAL     ACCESS:    9977076  HIT:    9296763  MISS:     680313
cpu0_L1I LOAD      ACCESS:    9977076  HIT:    9296763  MISS:     680313
cpu0_L1I RFO       ACCESS:          0  HIT:          0  MISS:          0
cpu0_L1I PREFETCH  ACCESS:          0  HIT:          0  MISS:          0
cpu0_L1I WRITEBACK ACCESS:          0  HIT:          0  MISS:          0
cpu0_L1I TRANSLATION ACCESS:          0  HIT:          0  MISS:          0
cpu0_L1I PREFETCH  REQUESTED:          0  ISSUED:          0  USEFUL:          0  USELESS:          0
cpu0_L1I AVERAGE MISS LATENCY: 12.1534 cycles
cpu0_STLB TOTAL     ACCESS:     734907  HIT:     726454  MISS:       8453
cpu0_STLB LOAD      ACCESS:     649600  HIT:     642237  MISS:       7363
cpu0_STLB RFO       ACCESS:      85307  HIT:      84217  MISS:       1090
cpu0_STLB PREFETCH  ACCESS:          0  HIT:          0  MISS:          0
cpu0_STLB WRITEBACK ACCESS:          0  HIT:          0  MISS:          0
cpu0_STLB TRANSLATION ACCESS:          0  HIT:          0  MISS:          0
cpu0_STLB PREFETCH  REQUESTED:          0  ISSUED:          0  USEFUL:          0  USELESS:          0
cpu0_STLB AVERAGE MISS LATENCY: 24.4578 cycles
cpu0_L1D TOTAL     ACCESS:   32040015  HIT:   31087224  MISS:     952791
cpu0_L1D LOAD      ACCESS:   16947553  HIT:   16083104  MISS:     864449
cpu0_L1D RFO       ACCESS:   15084046  HIT:   14997266  MISS:      86780
cpu0_L1D PREFETCH  ACCESS:          0  HIT:          0  MISS:          0
cpu0_L1D WRITEBACK ACCESS:          0  HIT:          0  MISS:          0
cpu0_L1D TRANSLATION ACCESS:       8416  HIT:       6854  MISS:       1562
cpu0_L1D PREFETCH  REQUESTED:          0  ISSUED:          0  USEFUL:          0  USELESS:          0
cpu0_L1D AVERAGE MISS LATENCY: 17.5454 cycles
cpu0_L2C TOTAL     ACCESS:    1889414  HIT:    1714334  MISS:     175080
cpu0_L2C LOAD      ACCESS:    1544748  HIT:    1392623  MISS:     152125
cpu0_L2C RFO       ACCESS:      86773  HIT:      64518  MISS:      22255
cpu0_L2C PREFETCH  ACCESS:          0  HIT:          0  MISS:          0
cpu0_L2C WRITEBACK ACCESS:     256331  HIT:     255861  MISS:        470
cpu0_L2C TRANSLATION ACCESS:       1562  HIT:       1332  MISS:        230
cpu0_L2C PREFETCH  REQUESTED:          0  ISSUED:          0  USEFUL:          0  USELESS:          0
cpu0_L2C AVERAGE MISS LATENCY: 39.9496 cycles
LLC TOTAL     ACCESS:     226405  HIT:     203058  MISS:      23347
LLC LOAD      ACCESS:     152125  HIT:     134105  MISS:      18020
LLC RFO       ACCESS:      22255  HIT:      17511  MISS:       4744
LLC PREFETCH  ACCESS:          0  HIT:          0  MISS:          0
LLC WRITEBACK ACCESS:      51795  HIT:      51220  MISS:        575
LLC TRANSLATION ACCESS:        230  HIT:        222  MISS:          8
LLC PREFETCH  REQUESTED:          0  ISSUED:          0  USEFUL:          0  USELESS:          0
LLC AVERAGE MISS LATENCY: 142.526 cycles
Ship++ misses: 1481
Hawkeye misses: 1351
Ship++ used: 5468
Hawkeye used: 10975

DRAM Statistics
 CHANNEL 0
 RQ ROW_BUFFER_HIT:       4800  ROW_BUFFER_MISS:      17972
 DBUS AVG_CONGESTED_CYCLE:     3.8522
 WQ ROW_BUFFER_HIT:       1156  ROW_BUFFER_MISS:       3272  FULL:          0


CPU 0 Branch Prediction Accuracy: 94.5426% MPKI: 12.0745 Average ROB Occupancy at Mispredict: 40.8807
Branch type MPKI
BRANCH_DIRECT_JUMP: 0.00217
BRANCH_INDIRECT: 0.80239
BRANCH_CONDITIONAL: 9.8183
BRANCH_DIRECT_CALL: 0.00216
BRANCH_INDIRECT_CALL: 1.42497
BRANCH_RETURN: 0.02455

