
*** ChampSim Multicore Out-of-Order Simulator ***

Warmup Instructions: 10000000
Simulation Instructions: 100000000
Number of CPUs: 1
Off-chip DRAM Size: 4 GiB Channels: 1 Width: 64-bit Data Rate: 3200 MT/s

VirtualMemory physical capacity: 8588881920 num_ppages: 2096895
VirtualMemory page size: 4096 log2_page_size: 12

CPU 0 runs /datasets/cs240c-wi22-a00-public/data/Assignment2/xalancbmk_748B.trace.xz
CPU 0 Bimodal branch predictor
Basic BTB sets: 1024 ways: 8 indirect buffer size: 4096 RAS size: 64
Initialize Hawkeye state
Initialize SRRIP state
Heartbeat CPU 0 instructions: 10000002 cycles: 2655103 heartbeat IPC: 3.76633 cumulative IPC: 3.76633 (Simulation time: 0 hr 0 min 30 sec) 

Warmup complete CPU 0 instructions: 10000002 cycles: 2655103 (Simulation time: 0 hr 0 min 30 sec) 

Heartbeat CPU 0 instructions: 20000001 cycles: 11805487 heartbeat IPC: 1.09285 cumulative IPC: 1.09285 (Simulation time: 0 hr 1 min 10 sec) 
Heartbeat CPU 0 instructions: 30000002 cycles: 20713351 heartbeat IPC: 1.1226 cumulative IPC: 1.10753 (Simulation time: 0 hr 1 min 48 sec) 
Heartbeat CPU 0 instructions: 40000002 cycles: 30055010 heartbeat IPC: 1.07047 cumulative IPC: 1.09489 (Simulation time: 0 hr 2 min 28 sec) 
Heartbeat CPU 0 instructions: 50000001 cycles: 38565342 heartbeat IPC: 1.17504 cumulative IPC: 1.11389 (Simulation time: 0 hr 3 min 10 sec) 
Heartbeat CPU 0 instructions: 60000003 cycles: 45723726 heartbeat IPC: 1.39696 cumulative IPC: 1.16094 (Simulation time: 0 hr 3 min 53 sec) 
Heartbeat CPU 0 instructions: 70000000 cycles: 51836212 heartbeat IPC: 1.636 cumulative IPC: 1.21998 (Simulation time: 0 hr 4 min 39 sec) 
Heartbeat CPU 0 instructions: 80000003 cycles: 62093876 heartbeat IPC: 0.974881 cumulative IPC: 1.17768 (Simulation time: 0 hr 5 min 23 sec) 
Heartbeat CPU 0 instructions: 90000003 cycles: 70722354 heartbeat IPC: 1.15895 cumulative IPC: 1.17531 (Simulation time: 0 hr 6 min 5 sec) 
Heartbeat CPU 0 instructions: 100000003 cycles: 78668659 heartbeat IPC: 1.25845 cumulative IPC: 1.184 (Simulation time: 0 hr 6 min 48 sec) 
Heartbeat CPU 0 instructions: 110000001 cycles: 85919334 heartbeat IPC: 1.37918 cumulative IPC: 1.201 (Simulation time: 0 hr 7 min 34 sec) 
Finished CPU 0 instructions: 100000004 cycles: 83264232 cumulative IPC: 1.201 (Simulation time: 0 hr 7 min 34 sec) 

ChampSim completed all CPUs

Region of Interest Statistics

CPU 0 cumulative IPC: 1.201 instructions: 100000004 cycles: 83264232
cpu0_DTLB TOTAL     ACCESS:   20939596  HIT:   19924341  MISS:    1015255
cpu0_DTLB LOAD      ACCESS:   15326259  HIT:   14391431  MISS:     934828
cpu0_DTLB RFO       ACCESS:    5613337  HIT:    5532910  MISS:      80427
cpu0_DTLB PREFETCH  ACCESS:          0  HIT:          0  MISS:          0
cpu0_DTLB WRITEBACK ACCESS:          0  HIT:          0  MISS:          0
cpu0_DTLB TRANSLATION ACCESS:          0  HIT:          0  MISS:          0
cpu0_DTLB PREFETCH  REQUESTED:          0  ISSUED:          0  USEFUL:          0  USELESS:          0
cpu0_DTLB AVERAGE MISS LATENCY: 12.6412 cycles
cpu0_ITLB TOTAL     ACCESS:    8532894  HIT:    8417859  MISS:     115035
cpu0_ITLB LOAD      ACCESS:    8532894  HIT:    8417859  MISS:     115035
cpu0_ITLB RFO       ACCESS:          0  HIT:          0  MISS:          0
cpu0_ITLB PREFETCH  ACCESS:          0  HIT:          0  MISS:          0
cpu0_ITLB WRITEBACK ACCESS:          0  HIT:          0  MISS:          0
cpu0_ITLB TRANSLATION ACCESS:          0  HIT:          0  MISS:          0
cpu0_ITLB PREFETCH  REQUESTED:          0  ISSUED:          0  USEFUL:          0  USELESS:          0
cpu0_ITLB AVERAGE MISS LATENCY: 9.07852 cycles
cpu0_L1I TOTAL     ACCESS:    5572346  HIT:    5474339  MISS:      98007
cpu0_L1I LOAD      ACCESS:    5572346  HIT:    5474339  MISS:      98007
cpu0_L1I RFO       ACCESS:          0  HIT:          0  MISS:          0
cpu0_L1I PREFETCH  ACCESS:          0  HIT:          0  MISS:          0
cpu0_L1I WRITEBACK ACCESS:          0  HIT:          0  MISS:          0
cpu0_L1I TRANSLATION ACCESS:          0  HIT:          0  MISS:          0
cpu0_L1I PREFETCH  REQUESTED:          0  ISSUED:          0  USEFUL:          0  USELESS:          0
cpu0_L1I AVERAGE MISS LATENCY: 14.0372 cycles
cpu0_STLB TOTAL     ACCESS:    1130290  HIT:    1056280  MISS:      74010
cpu0_STLB LOAD      ACCESS:    1049863  HIT:    1003773  MISS:      46090
cpu0_STLB RFO       ACCESS:      80427  HIT:      52507  MISS:      27920
cpu0_STLB PREFETCH  ACCESS:          0  HIT:          0  MISS:          0
cpu0_STLB WRITEBACK ACCESS:          0  HIT:          0  MISS:          0
cpu0_STLB TRANSLATION ACCESS:          0  HIT:          0  MISS:          0
cpu0_STLB PREFETCH  REQUESTED:          0  ISSUED:          0  USEFUL:          0  USELESS:          0
cpu0_STLB AVERAGE MISS LATENCY: 49.9165 cycles
cpu0_L1D TOTAL     ACCESS:   22873377  HIT:   21398789  MISS:    1474588
cpu0_L1D LOAD      ACCESS:   13617341  HIT:   12403973  MISS:    1213368
cpu0_L1D RFO       ACCESS:    9188975  HIT:    8942732  MISS:     246243
cpu0_L1D PREFETCH  ACCESS:          0  HIT:          0  MISS:          0
cpu0_L1D WRITEBACK ACCESS:          0  HIT:          0  MISS:          0
cpu0_L1D TRANSLATION ACCESS:      67061  HIT:      52084  MISS:      14977
cpu0_L1D PREFETCH  REQUESTED:          0  ISSUED:          0  USEFUL:          0  USELESS:          0
cpu0_L1D AVERAGE MISS LATENCY: 45.4855 cycles
cpu0_L2C TOTAL     ACCESS:    1931880  HIT:    1588096  MISS:     343784
cpu0_L2C LOAD      ACCESS:    1311337  HIT:    1191277  MISS:     120060
cpu0_L2C RFO       ACCESS:     246230  HIT:      23093  MISS:     223137
cpu0_L2C PREFETCH  ACCESS:          0  HIT:          0  MISS:          0
cpu0_L2C WRITEBACK ACCESS:     359336  HIT:     358849  MISS:        487
cpu0_L2C TRANSLATION ACCESS:      14977  HIT:      14877  MISS:        100
cpu0_L2C PREFETCH  REQUESTED:          0  ISSUED:          0  USEFUL:          0  USELESS:          0
cpu0_L2C AVERAGE MISS LATENCY: 148.202 cycles
LLC TOTAL     ACCESS:     632519  HIT:     226384  MISS:     406135
LLC LOAD      ACCESS:     120060  HIT:      68547  MISS:      51513
LLC RFO       ACCESS:     223137  HIT:      34008  MISS:     189129
LLC PREFETCH  ACCESS:          0  HIT:          0  MISS:          0
LLC WRITEBACK ACCESS:     289222  HIT:     123767  MISS:     165455
LLC TRANSLATION ACCESS:        100  HIT:         62  MISS:         38
LLC PREFETCH  REQUESTED:          0  ISSUED:          0  USEFUL:          0  USELESS:          0
LLC AVERAGE MISS LATENCY: 107.699 cycles
Ship++ misses: 8318
Hawkeye misses: 8165
Ship++ used: 161743
Hawkeye used: 237373

DRAM Statistics
 CHANNEL 0
 RQ ROW_BUFFER_HIT:      99266  ROW_BUFFER_MISS:     141411
 DBUS AVG_CONGESTED_CYCLE:    3.94598
 WQ ROW_BUFFER_HIT:      17438  ROW_BUFFER_MISS:     196663  FULL:          0


CPU 0 Branch Prediction Accuracy: 96.4988% MPKI: 10.3974 Average ROB Occupancy at Mispredict: 40.1917
Branch type MPKI
BRANCH_DIRECT_JUMP: 0.0002
BRANCH_INDIRECT: 0.35495
BRANCH_CONDITIONAL: 7.96079
BRANCH_DIRECT_CALL: 9e-05
BRANCH_INDIRECT_CALL: 0.45393
BRANCH_RETURN: 1.62746

