
*** ChampSim Multicore Out-of-Order Simulator ***

Warmup Instructions: 10000000
Simulation Instructions: 100000000
Number of CPUs: 1
Off-chip DRAM Size: 4 GiB Channels: 1 Width: 64-bit Data Rate: 3200 MT/s

VirtualMemory physical capacity: 8588881920 num_ppages: 2096895
VirtualMemory page size: 4096 log2_page_size: 12

CPU 0 runs /datasets/cs240c-wi22-a00-public/data/Assignment2/astar_163B.trace.xz
CPU 0 Bimodal branch predictor
Basic BTB sets: 1024 ways: 8 indirect buffer size: 4096 RAS size: 64
Initialize Hawkeye state
Initialize SRRIP state
Heartbeat CPU 0 instructions: 10000003 cycles: 2500067 heartbeat IPC: 3.99989 cumulative IPC: 3.99989 (Simulation time: 0 hr 0 min 30 sec) 

Warmup complete CPU 0 instructions: 10000003 cycles: 2500067 (Simulation time: 0 hr 0 min 30 sec) 

Heartbeat CPU 0 instructions: 20000001 cycles: 19922186 heartbeat IPC: 0.573983 cumulative IPC: 0.573983 (Simulation time: 0 hr 1 min 14 sec) 
Heartbeat CPU 0 instructions: 30000002 cycles: 35836963 heartbeat IPC: 0.628347 cumulative IPC: 0.599936 (Simulation time: 0 hr 1 min 52 sec) 
Heartbeat CPU 0 instructions: 40000000 cycles: 50588053 heartbeat IPC: 0.677916 cumulative IPC: 0.623856 (Simulation time: 0 hr 2 min 29 sec) 
Heartbeat CPU 0 instructions: 50000001 cycles: 65610650 heartbeat IPC: 0.665664 cumulative IPC: 0.633808 (Simulation time: 0 hr 3 min 5 sec) 
Heartbeat CPU 0 instructions: 60000003 cycles: 80265185 heartbeat IPC: 0.682383 cumulative IPC: 0.642962 (Simulation time: 0 hr 3 min 42 sec) 
Heartbeat CPU 0 instructions: 70000002 cycles: 94982459 heartbeat IPC: 0.679474 cumulative IPC: 0.648772 (Simulation time: 0 hr 4 min 17 sec) 
Heartbeat CPU 0 instructions: 80000000 cycles: 109837473 heartbeat IPC: 0.673173 cumulative IPC: 0.652149 (Simulation time: 0 hr 4 min 54 sec) 
Heartbeat CPU 0 instructions: 90000001 cycles: 124477661 heartbeat IPC: 0.683051 cumulative IPC: 0.655858 (Simulation time: 0 hr 5 min 29 sec) 
Heartbeat CPU 0 instructions: 100000003 cycles: 139370696 heartbeat IPC: 0.671455 cumulative IPC: 0.657555 (Simulation time: 0 hr 6 min 5 sec) 
Heartbeat CPU 0 instructions: 110000000 cycles: 154473583 heartbeat IPC: 0.662125 cumulative IPC: 0.658009 (Simulation time: 0 hr 6 min 40 sec) 
Finished CPU 0 instructions: 100000000 cycles: 151973517 cumulative IPC: 0.658009 (Simulation time: 0 hr 6 min 40 sec) 

ChampSim completed all CPUs

Region of Interest Statistics

CPU 0 cumulative IPC: 0.658009 instructions: 100000000 cycles: 151973517
cpu0_DTLB TOTAL     ACCESS:   21351917  HIT:   21042951  MISS:     308966
cpu0_DTLB LOAD      ACCESS:   16588206  HIT:   16287212  MISS:     300994
cpu0_DTLB RFO       ACCESS:    4763711  HIT:    4755739  MISS:       7972
cpu0_DTLB PREFETCH  ACCESS:          0  HIT:          0  MISS:          0
cpu0_DTLB WRITEBACK ACCESS:          0  HIT:          0  MISS:          0
cpu0_DTLB TRANSLATION ACCESS:          0  HIT:          0  MISS:          0
cpu0_DTLB PREFETCH  REQUESTED:          0  ISSUED:          0  USEFUL:          0  USELESS:          0
cpu0_DTLB AVERAGE MISS LATENCY: 10.2786 cycles
cpu0_ITLB TOTAL     ACCESS:   11988841  HIT:   11988834  MISS:          7
cpu0_ITLB LOAD      ACCESS:   11988841  HIT:   11988834  MISS:          7
cpu0_ITLB RFO       ACCESS:          0  HIT:          0  MISS:          0
cpu0_ITLB PREFETCH  ACCESS:          0  HIT:          0  MISS:          0
cpu0_ITLB WRITEBACK ACCESS:          0  HIT:          0  MISS:          0
cpu0_ITLB TRANSLATION ACCESS:          0  HIT:          0  MISS:          0
cpu0_ITLB PREFETCH  REQUESTED:          0  ISSUED:          0  USEFUL:          0  USELESS:          0
cpu0_ITLB AVERAGE MISS LATENCY: 347.286 cycles
cpu0_L1I TOTAL     ACCESS:      30572  HIT:      30486  MISS:         86
cpu0_L1I LOAD      ACCESS:      30572  HIT:      30486  MISS:         86
cpu0_L1I RFO       ACCESS:          0  HIT:          0  MISS:          0
cpu0_L1I PREFETCH  ACCESS:          0  HIT:          0  MISS:          0
cpu0_L1I WRITEBACK ACCESS:          0  HIT:          0  MISS:          0
cpu0_L1I TRANSLATION ACCESS:          0  HIT:          0  MISS:          0
cpu0_L1I PREFETCH  REQUESTED:          0  ISSUED:          0  USEFUL:          0  USELESS:          0
cpu0_L1I AVERAGE MISS LATENCY: 277.116 cycles
cpu0_STLB TOTAL     ACCESS:     308973  HIT:     291503  MISS:      17470
cpu0_STLB LOAD      ACCESS:     301001  HIT:     285663  MISS:      15338
cpu0_STLB RFO       ACCESS:       7972  HIT:       5840  MISS:       2132
cpu0_STLB PREFETCH  ACCESS:          0  HIT:          0  MISS:          0
cpu0_STLB WRITEBACK ACCESS:          0  HIT:          0  MISS:          0
cpu0_STLB TRANSLATION ACCESS:          0  HIT:          0  MISS:          0
cpu0_STLB PREFETCH  REQUESTED:          0  ISSUED:          0  USEFUL:          0  USELESS:          0
cpu0_STLB AVERAGE MISS LATENCY: 22.6179 cycles
cpu0_L1D TOTAL     ACCESS:   27133715  HIT:   26719297  MISS:     414418
cpu0_L1D LOAD      ACCESS:   16914348  HIT:   16580990  MISS:     333358
cpu0_L1D RFO       ACCESS:   10201953  HIT:   10121154  MISS:      80799
cpu0_L1D PREFETCH  ACCESS:          0  HIT:          0  MISS:          0
cpu0_L1D WRITEBACK ACCESS:          0  HIT:          0  MISS:          0
cpu0_L1D TRANSLATION ACCESS:      17414  HIT:      17153  MISS:        261
cpu0_L1D PREFETCH  REQUESTED:          0  ISSUED:          0  USEFUL:          0  USELESS:          0
cpu0_L1D AVERAGE MISS LATENCY: 64.4494 cycles
cpu0_L2C TOTAL     ACCESS:     633374  HIT:     441417  MISS:     191957
cpu0_L2C LOAD      ACCESS:     333379  HIT:     209340  MISS:     124039
cpu0_L2C RFO       ACCESS:      80799  HIT:      12919  MISS:      67880
cpu0_L2C PREFETCH  ACCESS:          0  HIT:          0  MISS:          0
cpu0_L2C WRITEBACK ACCESS:     218935  HIT:     218931  MISS:          4
cpu0_L2C TRANSLATION ACCESS:        261  HIT:        227  MISS:         34
cpu0_L2C PREFETCH  REQUESTED:          0  ISSUED:          0  USEFUL:          0  USELESS:          0
cpu0_L2C AVERAGE MISS LATENCY: 115.514 cycles
LLC TOTAL     ACCESS:     335198  HIT:     181699  MISS:     153499
LLC LOAD      ACCESS:     124038  HIT:      42408  MISS:      81630
LLC RFO       ACCESS:      67880  HIT:      33009  MISS:      34871
LLC PREFETCH  ACCESS:          0  HIT:          0  MISS:          0
LLC WRITEBACK ACCESS:     143246  HIT:     106262  MISS:      36984
LLC TRANSLATION ACCESS:         34  HIT:         20  MISS:         14
LLC PREFETCH  REQUESTED:          0  ISSUED:          0  USEFUL:          0  USELESS:          0
LLC AVERAGE MISS LATENCY: 118.195 cycles

DRAM Statistics
 CHANNEL 0
 RQ ROW_BUFFER_HIT:      10450  ROW_BUFFER_MISS:     106062
 DBUS AVG_CONGESTED_CYCLE:    3.81638
 WQ ROW_BUFFER_HIT:       6500  ROW_BUFFER_MISS:      69328  FULL:          0


CPU 0 Branch Prediction Accuracy: 70.0225% MPKI: 43.9041 Average ROB Occupancy at Mispredict: 12.6276
Branch type MPKI
BRANCH_DIRECT_JUMP: 0.00019
BRANCH_INDIRECT: 0
BRANCH_CONDITIONAL: 43.9037
BRANCH_DIRECT_CALL: 0.00012
BRANCH_INDIRECT_CALL: 0
BRANCH_RETURN: 0.00012

