
*** ChampSim Multicore Out-of-Order Simulator ***

Warmup Instructions: 10000000
Simulation Instructions: 100000000
Number of CPUs: 1
Off-chip DRAM Size: 4 GiB Channels: 1 Width: 64-bit Data Rate: 3200 MT/s

VirtualMemory physical capacity: 8588881920 num_ppages: 2096895
VirtualMemory page size: 4096 log2_page_size: 12

CPU 0 runs /datasets/cs240c-wi22-a00-public/data/Assignment2/astar_163B.trace.xz
CPU 0 Bimodal branch predictor
Basic BTB sets: 1024 ways: 8 indirect buffer size: 4096 RAS size: 64
Initialize Hawkeye state
Initialize SRRIP state
Heartbeat CPU 0 instructions: 10000003 cycles: 2500067 heartbeat IPC: 3.99989 cumulative IPC: 3.99989 (Simulation time: 0 hr 0 min 29 sec) 

Warmup complete CPU 0 instructions: 10000003 cycles: 2500067 (Simulation time: 0 hr 0 min 29 sec) 

Heartbeat CPU 0 instructions: 20000001 cycles: 19919436 heartbeat IPC: 0.574073 cumulative IPC: 0.574073 (Simulation time: 0 hr 1 min 9 sec) 
Heartbeat CPU 0 instructions: 30000002 cycles: 35835903 heartbeat IPC: 0.62828 cumulative IPC: 0.599955 (Simulation time: 0 hr 1 min 46 sec) 
Heartbeat CPU 0 instructions: 40000000 cycles: 50586743 heartbeat IPC: 0.677927 cumulative IPC: 0.623873 (Simulation time: 0 hr 2 min 19 sec) 
Heartbeat CPU 0 instructions: 50000001 cycles: 65609330 heartbeat IPC: 0.665664 cumulative IPC: 0.633821 (Simulation time: 0 hr 2 min 53 sec) 
Heartbeat CPU 0 instructions: 60000003 cycles: 80263995 heartbeat IPC: 0.682377 cumulative IPC: 0.642972 (Simulation time: 0 hr 3 min 26 sec) 
Heartbeat CPU 0 instructions: 70000002 cycles: 94984104 heartbeat IPC: 0.679343 cumulative IPC: 0.648761 (Simulation time: 0 hr 4 min 1 sec) 
Heartbeat CPU 0 instructions: 80000000 cycles: 109837373 heartbeat IPC: 0.673252 cumulative IPC: 0.65215 (Simulation time: 0 hr 4 min 36 sec) 
Heartbeat CPU 0 instructions: 90000001 cycles: 124478266 heartbeat IPC: 0.683019 cumulative IPC: 0.655855 (Simulation time: 0 hr 5 min 10 sec) 
Heartbeat CPU 0 instructions: 100000003 cycles: 139370836 heartbeat IPC: 0.671476 cumulative IPC: 0.657555 (Simulation time: 0 hr 5 min 44 sec) 
Heartbeat CPU 0 instructions: 110000000 cycles: 154471448 heartbeat IPC: 0.662225 cumulative IPC: 0.658019 (Simulation time: 0 hr 6 min 21 sec) 
Finished CPU 0 instructions: 100000000 cycles: 151971382 cumulative IPC: 0.658019 (Simulation time: 0 hr 6 min 21 sec) 

ChampSim completed all CPUs

Region of Interest Statistics

CPU 0 cumulative IPC: 0.658019 instructions: 100000000 cycles: 151971382
cpu0_DTLB TOTAL     ACCESS:   21351916  HIT:   21042950  MISS:     308966
cpu0_DTLB LOAD      ACCESS:   16588210  HIT:   16287216  MISS:     300994
cpu0_DTLB RFO       ACCESS:    4763706  HIT:    4755734  MISS:       7972
cpu0_DTLB PREFETCH  ACCESS:          0  HIT:          0  MISS:          0
cpu0_DTLB WRITEBACK ACCESS:          0  HIT:          0  MISS:          0
cpu0_DTLB TRANSLATION ACCESS:          0  HIT:          0  MISS:          0
cpu0_DTLB PREFETCH  REQUESTED:          0  ISSUED:          0  USEFUL:          0  USELESS:          0
cpu0_DTLB AVERAGE MISS LATENCY: 10.2781 cycles
cpu0_ITLB TOTAL     ACCESS:   11988851  HIT:   11988844  MISS:          7
cpu0_ITLB LOAD      ACCESS:   11988851  HIT:   11988844  MISS:          7
cpu0_ITLB RFO       ACCESS:          0  HIT:          0  MISS:          0
cpu0_ITLB PREFETCH  ACCESS:          0  HIT:          0  MISS:          0
cpu0_ITLB WRITEBACK ACCESS:          0  HIT:          0  MISS:          0
cpu0_ITLB TRANSLATION ACCESS:          0  HIT:          0  MISS:          0
cpu0_ITLB PREFETCH  REQUESTED:          0  ISSUED:          0  USEFUL:          0  USELESS:          0
cpu0_ITLB AVERAGE MISS LATENCY: 345.857 cycles
cpu0_L1I TOTAL     ACCESS:      30548  HIT:      30462  MISS:         86
cpu0_L1I LOAD      ACCESS:      30548  HIT:      30462  MISS:         86
cpu0_L1I RFO       ACCESS:          0  HIT:          0  MISS:          0
cpu0_L1I PREFETCH  ACCESS:          0  HIT:          0  MISS:          0
cpu0_L1I WRITEBACK ACCESS:          0  HIT:          0  MISS:          0
cpu0_L1I TRANSLATION ACCESS:          0  HIT:          0  MISS:          0
cpu0_L1I PREFETCH  REQUESTED:          0  ISSUED:          0  USEFUL:          0  USELESS:          0
cpu0_L1I AVERAGE MISS LATENCY: 273.802 cycles
cpu0_STLB TOTAL     ACCESS:     308973  HIT:     291503  MISS:      17470
cpu0_STLB LOAD      ACCESS:     301001  HIT:     285663  MISS:      15338
cpu0_STLB RFO       ACCESS:       7972  HIT:       5840  MISS:       2132
cpu0_STLB PREFETCH  ACCESS:          0  HIT:          0  MISS:          0
cpu0_STLB WRITEBACK ACCESS:          0  HIT:          0  MISS:          0
cpu0_STLB TRANSLATION ACCESS:          0  HIT:          0  MISS:          0
cpu0_STLB PREFETCH  REQUESTED:          0  ISSUED:          0  USEFUL:          0  USELESS:          0
cpu0_STLB AVERAGE MISS LATENCY: 22.608 cycles
cpu0_L1D TOTAL     ACCESS:   27133683  HIT:   26719263  MISS:     414420
cpu0_L1D LOAD      ACCESS:   16914411  HIT:   16581051  MISS:     333360
cpu0_L1D RFO       ACCESS:   10201858  HIT:   10121059  MISS:      80799
cpu0_L1D PREFETCH  ACCESS:          0  HIT:          0  MISS:          0
cpu0_L1D WRITEBACK ACCESS:          0  HIT:          0  MISS:          0
cpu0_L1D TRANSLATION ACCESS:      17414  HIT:      17153  MISS:        261
cpu0_L1D PREFETCH  REQUESTED:          0  ISSUED:          0  USEFUL:          0  USELESS:          0
cpu0_L1D AVERAGE MISS LATENCY: 64.4365 cycles
cpu0_L2C TOTAL     ACCESS:     633376  HIT:     441419  MISS:     191957
cpu0_L2C LOAD      ACCESS:     333381  HIT:     209342  MISS:     124039
cpu0_L2C RFO       ACCESS:      80799  HIT:      12919  MISS:      67880
cpu0_L2C PREFETCH  ACCESS:          0  HIT:          0  MISS:          0
cpu0_L2C WRITEBACK ACCESS:     218935  HIT:     218931  MISS:          4
cpu0_L2C TRANSLATION ACCESS:        261  HIT:        227  MISS:         34
cpu0_L2C PREFETCH  REQUESTED:          0  ISSUED:          0  USEFUL:          0  USELESS:          0
cpu0_L2C AVERAGE MISS LATENCY: 115.486 cycles
LLC TOTAL     ACCESS:     335198  HIT:     181666  MISS:     153532
LLC LOAD      ACCESS:     124038  HIT:      42441  MISS:      81597
LLC RFO       ACCESS:      67880  HIT:      32971  MISS:      34909
LLC PREFETCH  ACCESS:          0  HIT:          0  MISS:          0
LLC WRITEBACK ACCESS:     143246  HIT:     106233  MISS:      37013
LLC TRANSLATION ACCESS:         34  HIT:         21  MISS:         13
LLC PREFETCH  REQUESTED:          0  ISSUED:          0  USEFUL:          0  USELESS:          0
LLC AVERAGE MISS LATENCY: 118.134 cycles
Ship++ misses: 4961
Hawkeye misses: 4482
Ship++ used: 31914
Hawkeye used: 115485

DRAM Statistics
 CHANNEL 0
 RQ ROW_BUFFER_HIT:      10496  ROW_BUFFER_MISS:     106021
 DBUS AVG_CONGESTED_CYCLE:    3.81553
 WQ ROW_BUFFER_HIT:       6482  ROW_BUFFER_MISS:      69374  FULL:          0


CPU 0 Branch Prediction Accuracy: 70.0225% MPKI: 43.9041 Average ROB Occupancy at Mispredict: 12.6248
Branch type MPKI
BRANCH_DIRECT_JUMP: 0.00019
BRANCH_INDIRECT: 0
BRANCH_CONDITIONAL: 43.9037
BRANCH_DIRECT_CALL: 0.00012
BRANCH_INDIRECT_CALL: 0
BRANCH_RETURN: 0.00012

