
*** ChampSim Multicore Out-of-Order Simulator ***

Warmup Instructions: 10000000
Simulation Instructions: 100000000
Number of CPUs: 1
Off-chip DRAM Size: 4 GiB Channels: 1 Width: 64-bit Data Rate: 3200 MT/s

VirtualMemory physical capacity: 8588881920 num_ppages: 2096895
VirtualMemory page size: 4096 log2_page_size: 12

CPU 0 runs /datasets/cs240c-wi22-a00-public/data/Assignment2/bzip2_259B.trace.xz
CPU 0 Bimodal branch predictor
Basic BTB sets: 1024 ways: 8 indirect buffer size: 4096 RAS size: 64
Initialize Hawkeye state
Initialize SRRIP state
Heartbeat CPU 0 instructions: 10000002 cycles: 2535454 heartbeat IPC: 3.94407 cumulative IPC: 3.94407 (Simulation time: 0 hr 0 min 23 sec) 

Warmup complete CPU 0 instructions: 10000002 cycles: 2535454 (Simulation time: 0 hr 0 min 23 sec) 

Heartbeat CPU 0 instructions: 20000003 cycles: 8995412 heartbeat IPC: 1.548 cumulative IPC: 1.548 (Simulation time: 0 hr 1 min 16 sec) 
Heartbeat CPU 0 instructions: 30000002 cycles: 14549403 heartbeat IPC: 1.80051 cumulative IPC: 1.66473 (Simulation time: 0 hr 2 min 2 sec) 
Heartbeat CPU 0 instructions: 40000003 cycles: 21302678 heartbeat IPC: 1.48076 cumulative IPC: 1.59853 (Simulation time: 0 hr 2 min 40 sec) 
Heartbeat CPU 0 instructions: 50000003 cycles: 29508952 heartbeat IPC: 1.21858 cumulative IPC: 1.48294 (Simulation time: 0 hr 3 min 5 sec) 
Heartbeat CPU 0 instructions: 60000001 cycles: 37372612 heartbeat IPC: 1.27167 cumulative IPC: 1.43525 (Simulation time: 0 hr 3 min 30 sec) 
Heartbeat CPU 0 instructions: 70000004 cycles: 43887498 heartbeat IPC: 1.53495 cumulative IPC: 1.45096 (Simulation time: 0 hr 4 min 20 sec) 
Heartbeat CPU 0 instructions: 80000004 cycles: 50615086 heartbeat IPC: 1.48642 cumulative IPC: 1.45592 (Simulation time: 0 hr 5 min 9 sec) 
Heartbeat CPU 0 instructions: 90000001 cycles: 56877077 heartbeat IPC: 1.59694 cumulative IPC: 1.47217 (Simulation time: 0 hr 5 min 48 sec) 
Heartbeat CPU 0 instructions: 100000000 cycles: 65275974 heartbeat IPC: 1.19063 cumulative IPC: 1.43448 (Simulation time: 0 hr 6 min 14 sec) 
Heartbeat CPU 0 instructions: 110000000 cycles: 73246547 heartbeat IPC: 1.25461 cumulative IPC: 1.41421 (Simulation time: 0 hr 6 min 42 sec) 
Finished CPU 0 instructions: 100000003 cycles: 70711098 cumulative IPC: 1.41421 (Simulation time: 0 hr 6 min 42 sec) 

ChampSim completed all CPUs

Region of Interest Statistics

CPU 0 cumulative IPC: 1.41421 instructions: 100000003 cycles: 70711098
cpu0_DTLB TOTAL     ACCESS:   18628469  HIT:   17967920  MISS:     660549
cpu0_DTLB LOAD      ACCESS:    9570802  HIT:    8914183  MISS:     656619
cpu0_DTLB RFO       ACCESS:    9057667  HIT:    9053737  MISS:       3930
cpu0_DTLB PREFETCH  ACCESS:          0  HIT:          0  MISS:          0
cpu0_DTLB WRITEBACK ACCESS:          0  HIT:          0  MISS:          0
cpu0_DTLB TRANSLATION ACCESS:          0  HIT:          0  MISS:          0
cpu0_DTLB PREFETCH  REQUESTED:          0  ISSUED:          0  USEFUL:          0  USELESS:          0
cpu0_DTLB AVERAGE MISS LATENCY: 9.2634 cycles
cpu0_ITLB TOTAL     ACCESS:    6780891  HIT:    6780888  MISS:          3
cpu0_ITLB LOAD      ACCESS:    6780891  HIT:    6780888  MISS:          3
cpu0_ITLB RFO       ACCESS:          0  HIT:          0  MISS:          0
cpu0_ITLB PREFETCH  ACCESS:          0  HIT:          0  MISS:          0
cpu0_ITLB WRITEBACK ACCESS:          0  HIT:          0  MISS:          0
cpu0_ITLB TRANSLATION ACCESS:          0  HIT:          0  MISS:          0
cpu0_ITLB PREFETCH  REQUESTED:          0  ISSUED:          0  USEFUL:          0  USELESS:          0
cpu0_ITLB AVERAGE MISS LATENCY: 395.667 cycles
cpu0_L1I TOTAL     ACCESS:      58657  HIT:      58518  MISS:        139
cpu0_L1I LOAD      ACCESS:      58657  HIT:      58518  MISS:        139
cpu0_L1I RFO       ACCESS:          0  HIT:          0  MISS:          0
cpu0_L1I PREFETCH  ACCESS:          0  HIT:          0  MISS:          0
cpu0_L1I WRITEBACK ACCESS:          0  HIT:          0  MISS:          0
cpu0_L1I TRANSLATION ACCESS:          0  HIT:          0  MISS:          0
cpu0_L1I PREFETCH  REQUESTED:          0  ISSUED:          0  USEFUL:          0  USELESS:          0
cpu0_L1I AVERAGE MISS LATENCY: 217.878 cycles
cpu0_STLB TOTAL     ACCESS:     660552  HIT:     659732  MISS:        820
cpu0_STLB LOAD      ACCESS:     656622  HIT:     656349  MISS:        273
cpu0_STLB RFO       ACCESS:       3930  HIT:       3383  MISS:        547
cpu0_STLB PREFETCH  ACCESS:          0  HIT:          0  MISS:          0
cpu0_STLB WRITEBACK ACCESS:          0  HIT:          0  MISS:          0
cpu0_STLB TRANSLATION ACCESS:          0  HIT:          0  MISS:          0
cpu0_STLB PREFETCH  REQUESTED:          0  ISSUED:          0  USEFUL:          0  USELESS:          0
cpu0_STLB AVERAGE MISS LATENCY: 213.518 cycles
cpu0_L1D TOTAL     ACCESS:   20313903  HIT:   19308345  MISS:    1005558
cpu0_L1D LOAD      ACCESS:   10362814  HIT:    9476447  MISS:     886367
cpu0_L1D RFO       ACCESS:    9950272  HIT:    9831400  MISS:     118872
cpu0_L1D PREFETCH  ACCESS:          0  HIT:          0  MISS:          0
cpu0_L1D WRITEBACK ACCESS:          0  HIT:          0  MISS:          0
cpu0_L1D TRANSLATION ACCESS:        817  HIT:        498  MISS:        319
cpu0_L1D PREFETCH  REQUESTED:          0  ISSUED:          0  USEFUL:          0  USELESS:          0
cpu0_L1D AVERAGE MISS LATENCY: 85.4538 cycles
cpu0_L2C TOTAL     ACCESS:    1222692  HIT:     525079  MISS:     697613
cpu0_L2C LOAD      ACCESS:     886504  HIT:     288918  MISS:     597586
cpu0_L2C RFO       ACCESS:     118871  HIT:      18898  MISS:      99973
cpu0_L2C PREFETCH  ACCESS:          0  HIT:          0  MISS:          0
cpu0_L2C WRITEBACK ACCESS:     216998  HIT:     216962  MISS:         36
cpu0_L2C TRANSLATION ACCESS:        319  HIT:        301  MISS:         18
cpu0_L2C PREFETCH  REQUESTED:          0  ISSUED:          0  USEFUL:          0  USELESS:          0
cpu0_L2C AVERAGE MISS LATENCY: 107.356 cycles
LLC TOTAL     ACCESS:     886576  HIT:     591170  MISS:     295406
LLC LOAD      ACCESS:     597585  HIT:     400051  MISS:     197534
LLC RFO       ACCESS:      99973  HIT:      46788  MISS:      53185
LLC PREFETCH  ACCESS:          0  HIT:          0  MISS:          0
LLC WRITEBACK ACCESS:     189000  HIT:     144329  MISS:      44671
LLC TRANSLATION ACCESS:         18  HIT:          2  MISS:         16
LLC PREFETCH  REQUESTED:          0  ISSUED:          0  USEFUL:          0  USELESS:          0
LLC AVERAGE MISS LATENCY: 203.932 cycles
Ship++ misses: 8104
Hawkeye misses: 8111
Ship++ used: 61832
Hawkeye used: 220803

DRAM Statistics
 CHANNEL 0
 RQ ROW_BUFFER_HIT:      30341  ROW_BUFFER_MISS:     220219
 DBUS AVG_CONGESTED_CYCLE:    3.95418
 WQ ROW_BUFFER_HIT:      14982  ROW_BUFFER_MISS:     116655  FULL:       3446


CPU 0 Branch Prediction Accuracy: 93.3658% MPKI: 11.2167 Average ROB Occupancy at Mispredict: 31.7259
Branch type MPKI
BRANCH_DIRECT_JUMP: 0.0006
BRANCH_INDIRECT: 0.01713
BRANCH_CONDITIONAL: 11.1989
BRANCH_DIRECT_CALL: 5e-05
BRANCH_INDIRECT_CALL: 0
BRANCH_RETURN: 6e-05

