
*** ChampSim Multicore Out-of-Order Simulator ***

Warmup Instructions: 10000000
Simulation Instructions: 100000000
Number of CPUs: 1
Off-chip DRAM Size: 4 GiB Channels: 1 Width: 64-bit Data Rate: 3200 MT/s

VirtualMemory physical capacity: 8588881920 num_ppages: 2096895
VirtualMemory page size: 4096 log2_page_size: 12

CPU 0 runs /datasets/cs240c-wi22-a00-public/data/Assignment2/leslie3d_1116B.trace.xz
CPU 0 Bimodal branch predictor
Basic BTB sets: 1024 ways: 8 indirect buffer size: 4096 RAS size: 64
Initialize Hawkeye state
Initialize SRRIP state
Heartbeat CPU 0 instructions: 10000000 cycles: 3692443 heartbeat IPC: 2.70823 cumulative IPC: 2.70823 (Simulation time: 0 hr 0 min 49 sec) 

Warmup complete CPU 0 instructions: 10000005 cycles: 3692444 (Simulation time: 0 hr 0 min 49 sec) 

Heartbeat CPU 0 instructions: 20000000 cycles: 12763621 heartbeat IPC: 1.10239 cumulative IPC: 1.10239 (Simulation time: 0 hr 2 min 16 sec) 
Heartbeat CPU 0 instructions: 30000004 cycles: 21857030 heartbeat IPC: 1.0997 cumulative IPC: 1.10104 (Simulation time: 0 hr 3 min 44 sec) 
Heartbeat CPU 0 instructions: 40000001 cycles: 33506503 heartbeat IPC: 0.858408 cumulative IPC: 1.00624 (Simulation time: 0 hr 5 min 20 sec) 
Heartbeat CPU 0 instructions: 50000000 cycles: 55645708 heartbeat IPC: 0.451687 cumulative IPC: 0.769923 (Simulation time: 0 hr 7 min 46 sec) 
Heartbeat CPU 0 instructions: 60000001 cycles: 109455630 heartbeat IPC: 0.185839 cumulative IPC: 0.472754 (Simulation time: 0 hr 12 min 39 sec) 
Heartbeat CPU 0 instructions: 70000000 cycles: 124114522 heartbeat IPC: 0.68218 cumulative IPC: 0.498247 (Simulation time: 0 hr 14 min 34 sec) 
Heartbeat CPU 0 instructions: 80000001 cycles: 136979245 heartbeat IPC: 0.77732 cumulative IPC: 0.525183 (Simulation time: 0 hr 16 min 24 sec) 
Heartbeat CPU 0 instructions: 90000004 cycles: 150152802 heartbeat IPC: 0.759097 cumulative IPC: 0.546223 (Simulation time: 0 hr 18 min 20 sec) 
Heartbeat CPU 0 instructions: 100000002 cycles: 163212845 heartbeat IPC: 0.765694 cumulative IPC: 0.564191 (Simulation time: 0 hr 20 min 12 sec) 
Heartbeat CPU 0 instructions: 110000001 cycles: 180839273 heartbeat IPC: 0.56733 cumulative IPC: 0.564503 (Simulation time: 0 hr 22 min 19 sec) 
Finished CPU 0 instructions: 100000000 cycles: 177146831 cumulative IPC: 0.564503 (Simulation time: 0 hr 22 min 19 sec) 

ChampSim completed all CPUs

Region of Interest Statistics

CPU 0 cumulative IPC: 0.564503 instructions: 100000000 cycles: 177146831
cpu0_DTLB TOTAL     ACCESS:   25738960  HIT:   25673199  MISS:      65761
cpu0_DTLB LOAD      ACCESS:   21118263  HIT:   21066557  MISS:      51706
cpu0_DTLB RFO       ACCESS:    4620697  HIT:    4606642  MISS:      14055
cpu0_DTLB PREFETCH  ACCESS:          0  HIT:          0  MISS:          0
cpu0_DTLB WRITEBACK ACCESS:          0  HIT:          0  MISS:          0
cpu0_DTLB TRANSLATION ACCESS:          0  HIT:          0  MISS:          0
cpu0_DTLB PREFETCH  REQUESTED:          0  ISSUED:          0  USEFUL:          0  USELESS:          0
cpu0_DTLB AVERAGE MISS LATENCY: 86.1953 cycles
cpu0_ITLB TOTAL     ACCESS:    2857293  HIT:    2857275  MISS:         18
cpu0_ITLB LOAD      ACCESS:    2857293  HIT:    2857275  MISS:         18
cpu0_ITLB RFO       ACCESS:          0  HIT:          0  MISS:          0
cpu0_ITLB PREFETCH  ACCESS:          0  HIT:          0  MISS:          0
cpu0_ITLB WRITEBACK ACCESS:          0  HIT:          0  MISS:          0
cpu0_ITLB TRANSLATION ACCESS:          0  HIT:          0  MISS:          0
cpu0_ITLB PREFETCH  REQUESTED:          0  ISSUED:          0  USEFUL:          0  USELESS:          0
cpu0_ITLB AVERAGE MISS LATENCY: 296.778 cycles
cpu0_L1I TOTAL     ACCESS:    1777311  HIT:    1776839  MISS:        472
cpu0_L1I LOAD      ACCESS:    1777311  HIT:    1776839  MISS:        472
cpu0_L1I RFO       ACCESS:          0  HIT:          0  MISS:          0
cpu0_L1I PREFETCH  ACCESS:          0  HIT:          0  MISS:          0
cpu0_L1I WRITEBACK ACCESS:          0  HIT:          0  MISS:          0
cpu0_L1I TRANSLATION ACCESS:          0  HIT:          0  MISS:          0
cpu0_L1I PREFETCH  REQUESTED:          0  ISSUED:          0  USEFUL:          0  USELESS:          0
cpu0_L1I AVERAGE MISS LATENCY: 357.108 cycles
cpu0_STLB TOTAL     ACCESS:      65779  HIT:      34155  MISS:      31624
cpu0_STLB LOAD      ACCESS:      51724  HIT:      28258  MISS:      23466
cpu0_STLB RFO       ACCESS:      14055  HIT:       5897  MISS:       8158
cpu0_STLB PREFETCH  ACCESS:          0  HIT:          0  MISS:          0
cpu0_STLB WRITEBACK ACCESS:          0  HIT:          0  MISS:          0
cpu0_STLB TRANSLATION ACCESS:          0  HIT:          0  MISS:          0
cpu0_STLB PREFETCH  REQUESTED:          0  ISSUED:          0  USEFUL:          0  USELESS:          0
cpu0_STLB AVERAGE MISS LATENCY: 160.675 cycles
cpu0_L1D TOTAL     ACCESS:   24549950  HIT:   21139747  MISS:    3410203
cpu0_L1D LOAD      ACCESS:   16397635  HIT:   13780444  MISS:    2617191
cpu0_L1D RFO       ACCESS:    8122982  HIT:    7333608  MISS:     789374
cpu0_L1D PREFETCH  ACCESS:          0  HIT:          0  MISS:          0
cpu0_L1D WRITEBACK ACCESS:          0  HIT:          0  MISS:          0
cpu0_L1D TRANSLATION ACCESS:      29333  HIT:      25695  MISS:       3638
cpu0_L1D PREFETCH  REQUESTED:          0  ISSUED:          0  USEFUL:          0  USELESS:          0
cpu0_L1D AVERAGE MISS LATENCY: 482.945 cycles
cpu0_L2C TOTAL     ACCESS:    4455057  HIT:    1718398  MISS:    2736659
cpu0_L2C LOAD      ACCESS:    2617617  HIT:     507709  MISS:    2109908
cpu0_L2C RFO       ACCESS:     789285  HIT:     162806  MISS:     626479
cpu0_L2C PREFETCH  ACCESS:          0  HIT:          0  MISS:          0
cpu0_L2C WRITEBACK ACCESS:    1044517  HIT:    1044343  MISS:        174
cpu0_L2C TRANSLATION ACCESS:       3638  HIT:       3540  MISS:         98
cpu0_L2C PREFETCH  REQUESTED:          0  ISSUED:          0  USEFUL:          0  USELESS:          0
cpu0_L2C AVERAGE MISS LATENCY: 588.13 cycles
LLC TOTAL     ACCESS:    3497197  HIT:     782917  MISS:    2714280
LLC LOAD      ACCESS:    2109908  HIT:     479709  MISS:    1630199
LLC RFO       ACCESS:     626479  HIT:     103486  MISS:     522993
LLC PREFETCH  ACCESS:          0  HIT:          0  MISS:          0
LLC WRITEBACK ACCESS:     760712  HIT:     199707  MISS:     561005
LLC TRANSLATION ACCESS:         98  HIT:         15  MISS:         83
LLC PREFETCH  REQUESTED:          0  ISSUED:          0  USEFUL:          0  USELESS:          0
LLC AVERAGE MISS LATENCY: 571.752 cycles
Ship++ misses: 73682
Hawkeye misses: 71332
Ship++ used: 297989
Hawkeye used: 2573586

DRAM Statistics
 CHANNEL 0
 RQ ROW_BUFFER_HIT:     212913  ROW_BUFFER_MISS:    1939953
 DBUS AVG_CONGESTED_CYCLE:     3.9606
 WQ ROW_BUFFER_HIT:      61744  ROW_BUFFER_MISS:     610555  FULL:      33168


CPU 0 Branch Prediction Accuracy: 96.8713% MPKI: 1.55303 Average ROB Occupancy at Mispredict: 298.303
Branch type MPKI
BRANCH_DIRECT_JUMP: 0.00018
BRANCH_INDIRECT: 0
BRANCH_CONDITIONAL: 1.55065
BRANCH_DIRECT_CALL: 0.00113
BRANCH_INDIRECT_CALL: 0
BRANCH_RETURN: 0.00107

