
*** ChampSim Multicore Out-of-Order Simulator ***

Warmup Instructions: 10000000
Simulation Instructions: 100000000
Number of CPUs: 1
Off-chip DRAM Size: 4 GiB Channels: 1 Width: 64-bit Data Rate: 3200 MT/s

VirtualMemory physical capacity: 8588881920 num_ppages: 2096895
VirtualMemory page size: 4096 log2_page_size: 12

CPU 0 runs /datasets/cs240c-wi22-a00-public/data/Assignment2/soplex_66B.trace.xz
CPU 0 Bimodal branch predictor
Basic BTB sets: 1024 ways: 8 indirect buffer size: 4096 RAS size: 64
Initialize Hawkeye state
Initialize SRRIP state
Heartbeat CPU 0 instructions: 10000001 cycles: 2688395 heartbeat IPC: 3.71969 cumulative IPC: 3.71969 (Simulation time: 0 hr 0 min 29 sec) 

Warmup complete CPU 0 instructions: 10000001 cycles: 2688395 (Simulation time: 0 hr 0 min 29 sec) 

Heartbeat CPU 0 instructions: 20000003 cycles: 27375079 heartbeat IPC: 0.405077 cumulative IPC: 0.405077 (Simulation time: 0 hr 1 min 50 sec) 
Heartbeat CPU 0 instructions: 30000001 cycles: 51358129 heartbeat IPC: 0.416961 cumulative IPC: 0.410933 (Simulation time: 0 hr 3 min 13 sec) 
Heartbeat CPU 0 instructions: 40000002 cycles: 75079187 heartbeat IPC: 0.421566 cumulative IPC: 0.414417 (Simulation time: 0 hr 4 min 27 sec) 
Heartbeat CPU 0 instructions: 50000002 cycles: 108489815 heartbeat IPC: 0.299306 cumulative IPC: 0.378067 (Simulation time: 0 hr 6 min 13 sec) 
Heartbeat CPU 0 instructions: 60000002 cycles: 144003198 heartbeat IPC: 0.281584 cumulative IPC: 0.35382 (Simulation time: 0 hr 8 min 2 sec) 
Heartbeat CPU 0 instructions: 70000001 cycles: 170318161 heartbeat IPC: 0.380012 cumulative IPC: 0.357932 (Simulation time: 0 hr 9 min 30 sec) 
Heartbeat CPU 0 instructions: 80000001 cycles: 197737591 heartbeat IPC: 0.364705 cumulative IPC: 0.358884 (Simulation time: 0 hr 11 min 13 sec) 
Heartbeat CPU 0 instructions: 90000003 cycles: 222343995 heartbeat IPC: 0.406398 cumulative IPC: 0.364207 (Simulation time: 0 hr 12 min 32 sec) 
Heartbeat CPU 0 instructions: 100000000 cycles: 246377536 heartbeat IPC: 0.416085 cumulative IPC: 0.369323 (Simulation time: 0 hr 13 min 47 sec) 
Heartbeat CPU 0 instructions: 110000001 cycles: 270848074 heartbeat IPC: 0.408655 cumulative IPC: 0.372912 (Simulation time: 0 hr 15 min 8 sec) 
Finished CPU 0 instructions: 100000000 cycles: 268159679 cumulative IPC: 0.372912 (Simulation time: 0 hr 15 min 8 sec) 

ChampSim completed all CPUs

Region of Interest Statistics

CPU 0 cumulative IPC: 0.372912 instructions: 100000000 cycles: 268159679
cpu0_DTLB TOTAL     ACCESS:   19880485  HIT:   19303122  MISS:     577363
cpu0_DTLB LOAD      ACCESS:   14815253  HIT:   14358071  MISS:     457182
cpu0_DTLB RFO       ACCESS:    5065232  HIT:    4945051  MISS:     120181
cpu0_DTLB PREFETCH  ACCESS:          0  HIT:          0  MISS:          0
cpu0_DTLB WRITEBACK ACCESS:          0  HIT:          0  MISS:          0
cpu0_DTLB TRANSLATION ACCESS:          0  HIT:          0  MISS:          0
cpu0_DTLB PREFETCH  REQUESTED:          0  ISSUED:          0  USEFUL:          0  USELESS:          0
cpu0_DTLB AVERAGE MISS LATENCY: 16.7767 cycles
cpu0_ITLB TOTAL     ACCESS:    8261051  HIT:    8261033  MISS:         18
cpu0_ITLB LOAD      ACCESS:    8261051  HIT:    8261033  MISS:         18
cpu0_ITLB RFO       ACCESS:          0  HIT:          0  MISS:          0
cpu0_ITLB PREFETCH  ACCESS:          0  HIT:          0  MISS:          0
cpu0_ITLB WRITEBACK ACCESS:          0  HIT:          0  MISS:          0
cpu0_ITLB TRANSLATION ACCESS:          0  HIT:          0  MISS:          0
cpu0_ITLB PREFETCH  REQUESTED:          0  ISSUED:          0  USEFUL:          0  USELESS:          0
cpu0_ITLB AVERAGE MISS LATENCY: 326.778 cycles
cpu0_L1I TOTAL     ACCESS:    1900117  HIT:    1899256  MISS:        861
cpu0_L1I LOAD      ACCESS:    1900117  HIT:    1899256  MISS:        861
cpu0_L1I RFO       ACCESS:          0  HIT:          0  MISS:          0
cpu0_L1I PREFETCH  ACCESS:          0  HIT:          0  MISS:          0
cpu0_L1I WRITEBACK ACCESS:          0  HIT:          0  MISS:          0
cpu0_L1I TRANSLATION ACCESS:          0  HIT:          0  MISS:          0
cpu0_L1I PREFETCH  REQUESTED:          0  ISSUED:          0  USEFUL:          0  USELESS:          0
cpu0_L1I AVERAGE MISS LATENCY: 291.405 cycles
cpu0_STLB TOTAL     ACCESS:     577381  HIT:     474460  MISS:     102921
cpu0_STLB LOAD      ACCESS:     457200  HIT:     362120  MISS:      95080
cpu0_STLB RFO       ACCESS:     120181  HIT:     112340  MISS:       7841
cpu0_STLB PREFETCH  ACCESS:          0  HIT:          0  MISS:          0
cpu0_STLB WRITEBACK ACCESS:          0  HIT:          0  MISS:          0
cpu0_STLB TRANSLATION ACCESS:          0  HIT:          0  MISS:          0
cpu0_STLB PREFETCH  REQUESTED:          0  ISSUED:          0  USEFUL:          0  USELESS:          0
cpu0_STLB AVERAGE MISS LATENCY: 43.0914 cycles
cpu0_L1D TOTAL     ACCESS:   17091892  HIT:   12774853  MISS:    4317039
cpu0_L1D LOAD      ACCESS:   11100245  HIT:    7501921  MISS:    3598324
cpu0_L1D RFO       ACCESS:    5891604  HIT:    5175531  MISS:     716073
cpu0_L1D PREFETCH  ACCESS:          0  HIT:          0  MISS:          0
cpu0_L1D WRITEBACK ACCESS:          0  HIT:          0  MISS:          0
cpu0_L1D TRANSLATION ACCESS:     100043  HIT:      97401  MISS:       2642
cpu0_L1D PREFETCH  REQUESTED:          0  ISSUED:          0  USEFUL:          0  USELESS:          0
cpu0_L1D AVERAGE MISS LATENCY: 216.424 cycles
cpu0_L2C TOTAL     ACCESS:    6105380  HIT:    2608067  MISS:    3497313
cpu0_L2C LOAD      ACCESS:    3599056  HIT:     717376  MISS:    2881680
cpu0_L2C RFO       ACCESS:     716017  HIT:     101650  MISS:     614367
cpu0_L2C PREFETCH  ACCESS:          0  HIT:          0  MISS:          0
cpu0_L2C WRITEBACK ACCESS:    1787665  HIT:    1787125  MISS:        540
cpu0_L2C TRANSLATION ACCESS:       2642  HIT:       1916  MISS:        726
cpu0_L2C PREFETCH  REQUESTED:          0  ISSUED:          0  USEFUL:          0  USELESS:          0
cpu0_L2C AVERAGE MISS LATENCY: 253.451 cycles
LLC TOTAL     ACCESS:    4876894  HIT:    2359194  MISS:    2517700
LLC LOAD      ACCESS:    2881668  HIT:    1219061  MISS:    1662607
LLC RFO       ACCESS:     614367  HIT:     246089  MISS:     368278
LLC PREFETCH  ACCESS:          0  HIT:          0  MISS:          0
LLC WRITEBACK ACCESS:    1380133  HIT:     893584  MISS:     486549
LLC TRANSLATION ACCESS:        726  HIT:        460  MISS:        266
LLC PREFETCH  REQUESTED:          0  ISSUED:          0  USEFUL:          0  USELESS:          0
LLC AVERAGE MISS LATENCY: 320.51 cycles
Ship++ misses: 69748
Hawkeye misses: 76819
Ship++ used: 3522027
Hawkeye used: 120378

DRAM Statistics
 CHANNEL 0
 RQ ROW_BUFFER_HIT:     338930  ROW_BUFFER_MISS:    1690367
 DBUS AVG_CONGESTED_CYCLE:    3.94822
 WQ ROW_BUFFER_HIT:      59096  ROW_BUFFER_MISS:     709991  FULL:     877015


CPU 0 Branch Prediction Accuracy: 91.9788% MPKI: 17.5693 Average ROB Occupancy at Mispredict: 27.6258
Branch type MPKI
BRANCH_DIRECT_JUMP: 0.00093
BRANCH_INDIRECT: 0.00028
BRANCH_CONDITIONAL: 17.5659
BRANCH_DIRECT_CALL: 0.00064
BRANCH_INDIRECT_CALL: 0.00043
BRANCH_RETURN: 0.00108

