
*** ChampSim Multicore Out-of-Order Simulator ***

Warmup Instructions: 10000000
Simulation Instructions: 100000000
Number of CPUs: 1
Off-chip DRAM Size: 4 GiB Channels: 1 Width: 64-bit Data Rate: 3200 MT/s

VirtualMemory physical capacity: 8588881920 num_ppages: 2096895
VirtualMemory page size: 4096 log2_page_size: 12

CPU 0 runs /datasets/cs240c-wi22-a00-public/data/Assignment2/leslie3d_1116B.trace.xz
CPU 0 Bimodal branch predictor
Basic BTB sets: 1024 ways: 8 indirect buffer size: 4096 RAS size: 64
Initialize Hawkeye state
Initialize SRRIP state
Heartbeat CPU 0 instructions: 10000000 cycles: 3692439 heartbeat IPC: 2.70824 cumulative IPC: 2.70824 (Simulation time: 0 hr 0 min 51 sec) 

Warmup complete CPU 0 instructions: 10000005 cycles: 3692440 (Simulation time: 0 hr 0 min 51 sec) 

Heartbeat CPU 0 instructions: 20000000 cycles: 12666248 heartbeat IPC: 1.11435 cumulative IPC: 1.11435 (Simulation time: 0 hr 2 min 21 sec) 
Heartbeat CPU 0 instructions: 30000004 cycles: 21741841 heartbeat IPC: 1.10186 cumulative IPC: 1.10807 (Simulation time: 0 hr 3 min 49 sec) 
Heartbeat CPU 0 instructions: 40000004 cycles: 33377006 heartbeat IPC: 0.859464 cumulative IPC: 1.01063 (Simulation time: 0 hr 5 min 28 sec) 
Heartbeat CPU 0 instructions: 50000000 cycles: 55501245 heartbeat IPC: 0.451993 cumulative IPC: 0.772069 (Simulation time: 0 hr 7 min 47 sec) 
Heartbeat CPU 0 instructions: 60000001 cycles: 109504675 heartbeat IPC: 0.185173 cumulative IPC: 0.472535 (Simulation time: 0 hr 12 min 29 sec) 
Heartbeat CPU 0 instructions: 70000000 cycles: 124000850 heartbeat IPC: 0.689837 cumulative IPC: 0.498718 (Simulation time: 0 hr 14 min 24 sec) 
Heartbeat CPU 0 instructions: 80000001 cycles: 137062435 heartbeat IPC: 0.765604 cumulative IPC: 0.524856 (Simulation time: 0 hr 16 min 14 sec) 
Heartbeat CPU 0 instructions: 90000004 cycles: 150056337 heartbeat IPC: 0.769592 cumulative IPC: 0.546583 (Simulation time: 0 hr 18 min 2 sec) 
Heartbeat CPU 0 instructions: 100000002 cycles: 163201385 heartbeat IPC: 0.760743 cumulative IPC: 0.564232 (Simulation time: 0 hr 19 min 48 sec) 
Heartbeat CPU 0 instructions: 110000001 cycles: 180772185 heartbeat IPC: 0.569126 cumulative IPC: 0.564717 (Simulation time: 0 hr 21 min 45 sec) 
Finished CPU 0 instructions: 100000001 cycles: 177079746 cumulative IPC: 0.564717 (Simulation time: 0 hr 21 min 45 sec) 

ChampSim completed all CPUs

Region of Interest Statistics

CPU 0 cumulative IPC: 0.564717 instructions: 100000001 cycles: 177079746
cpu0_DTLB TOTAL     ACCESS:   25738244  HIT:   25672477  MISS:      65767
cpu0_DTLB LOAD      ACCESS:   21117469  HIT:   21065756  MISS:      51713
cpu0_DTLB RFO       ACCESS:    4620775  HIT:    4606721  MISS:      14054
cpu0_DTLB PREFETCH  ACCESS:          0  HIT:          0  MISS:          0
cpu0_DTLB WRITEBACK ACCESS:          0  HIT:          0  MISS:          0
cpu0_DTLB TRANSLATION ACCESS:          0  HIT:          0  MISS:          0
cpu0_DTLB PREFETCH  REQUESTED:          0  ISSUED:          0  USEFUL:          0  USELESS:          0
cpu0_DTLB AVERAGE MISS LATENCY: 86.1975 cycles
cpu0_ITLB TOTAL     ACCESS:    2857216  HIT:    2857198  MISS:         18
cpu0_ITLB LOAD      ACCESS:    2857216  HIT:    2857198  MISS:         18
cpu0_ITLB RFO       ACCESS:          0  HIT:          0  MISS:          0
cpu0_ITLB PREFETCH  ACCESS:          0  HIT:          0  MISS:          0
cpu0_ITLB WRITEBACK ACCESS:          0  HIT:          0  MISS:          0
cpu0_ITLB TRANSLATION ACCESS:          0  HIT:          0  MISS:          0
cpu0_ITLB PREFETCH  REQUESTED:          0  ISSUED:          0  USEFUL:          0  USELESS:          0
cpu0_ITLB AVERAGE MISS LATENCY: 307.778 cycles
cpu0_L1I TOTAL     ACCESS:    1776863  HIT:    1776391  MISS:        472
cpu0_L1I LOAD      ACCESS:    1776863  HIT:    1776391  MISS:        472
cpu0_L1I RFO       ACCESS:          0  HIT:          0  MISS:          0
cpu0_L1I PREFETCH  ACCESS:          0  HIT:          0  MISS:          0
cpu0_L1I WRITEBACK ACCESS:          0  HIT:          0  MISS:          0
cpu0_L1I TRANSLATION ACCESS:          0  HIT:          0  MISS:          0
cpu0_L1I PREFETCH  REQUESTED:          0  ISSUED:          0  USEFUL:          0  USELESS:          0
cpu0_L1I AVERAGE MISS LATENCY: 350.697 cycles
cpu0_STLB TOTAL     ACCESS:      65785  HIT:      34161  MISS:      31624
cpu0_STLB LOAD      ACCESS:      51731  HIT:      28265  MISS:      23466
cpu0_STLB RFO       ACCESS:      14054  HIT:       5896  MISS:       8158
cpu0_STLB PREFETCH  ACCESS:          0  HIT:          0  MISS:          0
cpu0_STLB WRITEBACK ACCESS:          0  HIT:          0  MISS:          0
cpu0_STLB TRANSLATION ACCESS:          0  HIT:          0  MISS:          0
cpu0_STLB PREFETCH  REQUESTED:          0  ISSUED:          0  USEFUL:          0  USELESS:          0
cpu0_STLB AVERAGE MISS LATENCY: 160.701 cycles
cpu0_L1D TOTAL     ACCESS:   24548512  HIT:   21138304  MISS:    3410208
cpu0_L1D LOAD      ACCESS:   16396498  HIT:   13779336  MISS:    2617162
cpu0_L1D RFO       ACCESS:    8122688  HIT:    7333279  MISS:     789409
cpu0_L1D PREFETCH  ACCESS:          0  HIT:          0  MISS:          0
cpu0_L1D WRITEBACK ACCESS:          0  HIT:          0  MISS:          0
cpu0_L1D TRANSLATION ACCESS:      29326  HIT:      25689  MISS:       3637
cpu0_L1D PREFETCH  REQUESTED:          0  ISSUED:          0  USEFUL:          0  USELESS:          0
cpu0_L1D AVERAGE MISS LATENCY: 483.325 cycles
cpu0_L2C TOTAL     ACCESS:    4455077  HIT:    1718440  MISS:    2736637
cpu0_L2C LOAD      ACCESS:    2617588  HIT:     507703  MISS:    2109885
cpu0_L2C RFO       ACCESS:     789322  HIT:     162840  MISS:     626482
cpu0_L2C PREFETCH  ACCESS:          0  HIT:          0  MISS:          0
cpu0_L2C WRITEBACK ACCESS:    1044530  HIT:    1044358  MISS:        172
cpu0_L2C TRANSLATION ACCESS:       3637  HIT:       3539  MISS:         98
cpu0_L2C PREFETCH  REQUESTED:          0  ISSUED:          0  USEFUL:          0  USELESS:          0
cpu0_L2C AVERAGE MISS LATENCY: 588.608 cycles
LLC TOTAL     ACCESS:    3497178  HIT:     784070  MISS:    2713108
LLC LOAD      ACCESS:    2109885  HIT:     481993  MISS:    1627892
LLC RFO       ACCESS:     626482  HIT:     102633  MISS:     523849
LLC PREFETCH  ACCESS:          0  HIT:          0  MISS:          0
LLC WRITEBACK ACCESS:     760713  HIT:     199427  MISS:     561286
LLC TRANSLATION ACCESS:         98  HIT:         17  MISS:         81
LLC PREFETCH  REQUESTED:          0  ISSUED:          0  USEFUL:          0  USELESS:          0
LLC AVERAGE MISS LATENCY: 572.48 cycles

DRAM Statistics
 CHANNEL 0
 RQ ROW_BUFFER_HIT:     212438  ROW_BUFFER_MISS:    1939003
 DBUS AVG_CONGESTED_CYCLE:    3.96059
 WQ ROW_BUFFER_HIT:      61995  ROW_BUFFER_MISS:     611719  FULL:      33507


CPU 0 Branch Prediction Accuracy: 96.8713% MPKI: 1.55303 Average ROB Occupancy at Mispredict: 298.188
Branch type MPKI
BRANCH_DIRECT_JUMP: 0.00018
BRANCH_INDIRECT: 0
BRANCH_CONDITIONAL: 1.55065
BRANCH_DIRECT_CALL: 0.00113
BRANCH_INDIRECT_CALL: 0
BRANCH_RETURN: 0.00107

