
*** ChampSim Multicore Out-of-Order Simulator ***

Warmup Instructions: 10000000
Simulation Instructions: 100000000
Number of CPUs: 1
Off-chip DRAM Size: 4 GiB Channels: 1 Width: 64-bit Data Rate: 3200 MT/s

VirtualMemory physical capacity: 8588881920 num_ppages: 2096895
VirtualMemory page size: 4096 log2_page_size: 12

CPU 0 runs /datasets/cs240c-wi22-a00-public/data/Assignment2/leslie3d_94B.trace.xz
CPU 0 Bimodal branch predictor
Basic BTB sets: 1024 ways: 8 indirect buffer size: 4096 RAS size: 64
Initialize Hawkeye state
Initialize SRRIP state
Heartbeat CPU 0 instructions: 10000002 cycles: 4308717 heartbeat IPC: 2.32088 cumulative IPC: 2.32088 (Simulation time: 0 hr 1 min 9 sec) 

Warmup complete CPU 0 instructions: 10000002 cycles: 4308717 (Simulation time: 0 hr 1 min 9 sec) 

Heartbeat CPU 0 instructions: 20000001 cycles: 26689216 heartbeat IPC: 0.446818 cumulative IPC: 0.446818 (Simulation time: 0 hr 3 min 28 sec) 
Heartbeat CPU 0 instructions: 30000001 cycles: 77485850 heartbeat IPC: 0.196863 cumulative IPC: 0.273309 (Simulation time: 0 hr 8 min 5 sec) 
Heartbeat CPU 0 instructions: 40000001 cycles: 88091280 heartbeat IPC: 0.942913 cumulative IPC: 0.35807 (Simulation time: 0 hr 9 min 44 sec) 
Heartbeat CPU 0 instructions: 50000002 cycles: 98387911 heartbeat IPC: 0.971192 cumulative IPC: 0.425174 (Simulation time: 0 hr 11 min 25 sec) 
Heartbeat CPU 0 instructions: 60000003 cycles: 108620030 heartbeat IPC: 0.977315 cumulative IPC: 0.479334 (Simulation time: 0 hr 13 min 4 sec) 
Heartbeat CPU 0 instructions: 70000001 cycles: 118902140 heartbeat IPC: 0.972563 cumulative IPC: 0.52359 (Simulation time: 0 hr 14 min 44 sec) 
Heartbeat CPU 0 instructions: 80000001 cycles: 132567627 heartbeat IPC: 0.73177 cumulative IPC: 0.545771 (Simulation time: 0 hr 16 min 41 sec) 
Heartbeat CPU 0 instructions: 90000004 cycles: 166289615 heartbeat IPC: 0.296543 cumulative IPC: 0.493885 (Simulation time: 0 hr 20 min 6 sec) 
Heartbeat CPU 0 instructions: 100000001 cycles: 221843527 heartbeat IPC: 0.180005 cumulative IPC: 0.413727 (Simulation time: 0 hr 25 min 41 sec) 
Heartbeat CPU 0 instructions: 110000004 cycles: 238472741 heartbeat IPC: 0.601351 cumulative IPC: 0.427051 (Simulation time: 0 hr 27 min 24 sec) 
Finished CPU 0 instructions: 100000002 cycles: 234164024 cumulative IPC: 0.427051 (Simulation time: 0 hr 27 min 24 sec) 

ChampSim completed all CPUs

Region of Interest Statistics

CPU 0 cumulative IPC: 0.427051 instructions: 100000002 cycles: 234164024
cpu0_DTLB TOTAL     ACCESS:   26707981  HIT:   26595351  MISS:     112630
cpu0_DTLB LOAD      ACCESS:   21449641  HIT:   21353928  MISS:      95713
cpu0_DTLB RFO       ACCESS:    5258340  HIT:    5241423  MISS:      16917
cpu0_DTLB PREFETCH  ACCESS:          0  HIT:          0  MISS:          0
cpu0_DTLB WRITEBACK ACCESS:          0  HIT:          0  MISS:          0
cpu0_DTLB TRANSLATION ACCESS:          0  HIT:          0  MISS:          0
cpu0_DTLB PREFETCH  REQUESTED:          0  ISSUED:          0  USEFUL:          0  USELESS:          0
cpu0_DTLB AVERAGE MISS LATENCY: 103.572 cycles
cpu0_ITLB TOTAL     ACCESS:    3124626  HIT:    3124569  MISS:         57
cpu0_ITLB LOAD      ACCESS:    3124626  HIT:    3124569  MISS:         57
cpu0_ITLB RFO       ACCESS:          0  HIT:          0  MISS:          0
cpu0_ITLB PREFETCH  ACCESS:          0  HIT:          0  MISS:          0
cpu0_ITLB WRITEBACK ACCESS:          0  HIT:          0  MISS:          0
cpu0_ITLB TRANSLATION ACCESS:          0  HIT:          0  MISS:          0
cpu0_ITLB PREFETCH  REQUESTED:          0  ISSUED:          0  USEFUL:          0  USELESS:          0
cpu0_ITLB AVERAGE MISS LATENCY: 239.544 cycles
cpu0_L1I TOTAL     ACCESS:    1637619  HIT:    1636547  MISS:       1072
cpu0_L1I LOAD      ACCESS:    1637619  HIT:    1636547  MISS:       1072
cpu0_L1I RFO       ACCESS:          0  HIT:          0  MISS:          0
cpu0_L1I PREFETCH  ACCESS:          0  HIT:          0  MISS:          0
cpu0_L1I WRITEBACK ACCESS:          0  HIT:          0  MISS:          0
cpu0_L1I TRANSLATION ACCESS:          0  HIT:          0  MISS:          0
cpu0_L1I PREFETCH  REQUESTED:          0  ISSUED:          0  USEFUL:          0  USELESS:          0
cpu0_L1I AVERAGE MISS LATENCY: 332.977 cycles
cpu0_STLB TOTAL     ACCESS:     112687  HIT:      62991  MISS:      49696
cpu0_STLB LOAD      ACCESS:      95770  HIT:      56411  MISS:      39359
cpu0_STLB RFO       ACCESS:      16917  HIT:       6580  MISS:      10337
cpu0_STLB PREFETCH  ACCESS:          0  HIT:          0  MISS:          0
cpu0_STLB WRITEBACK ACCESS:          0  HIT:          0  MISS:          0
cpu0_STLB TRANSLATION ACCESS:          0  HIT:          0  MISS:          0
cpu0_STLB PREFETCH  REQUESTED:          0  ISSUED:          0  USEFUL:          0  USELESS:          0
cpu0_STLB AVERAGE MISS LATENCY: 214.522 cycles
cpu0_L1D TOTAL     ACCESS:   22201723  HIT:   18165839  MISS:    4035884
cpu0_L1D LOAD      ACCESS:   13820632  HIT:   10731944  MISS:    3088688
cpu0_L1D RFO       ACCESS:    8338727  HIT:    7396439  MISS:     942288
cpu0_L1D PREFETCH  ACCESS:          0  HIT:          0  MISS:          0
cpu0_L1D WRITEBACK ACCESS:          0  HIT:          0  MISS:          0
cpu0_L1D TRANSLATION ACCESS:      42364  HIT:      37456  MISS:       4908
cpu0_L1D PREFETCH  REQUESTED:          0  ISSUED:          0  USEFUL:          0  USELESS:          0
cpu0_L1D AVERAGE MISS LATENCY: 620.638 cycles
cpu0_L2C TOTAL     ACCESS:    5249270  HIT:    2252265  MISS:    2997005
cpu0_L2C LOAD      ACCESS:    3089755  HIT:     791361  MISS:    2298394
cpu0_L2C RFO       ACCESS:     942192  HIT:     246153  MISS:     696039
cpu0_L2C PREFETCH  ACCESS:          0  HIT:          0  MISS:          0
cpu0_L2C WRITEBACK ACCESS:    1212415  HIT:    1210125  MISS:       2290
cpu0_L2C TRANSLATION ACCESS:       4908  HIT:       4626  MISS:        282
cpu0_L2C PREFETCH  REQUESTED:          0  ISSUED:          0  USEFUL:          0  USELESS:          0
cpu0_L2C AVERAGE MISS LATENCY: 821.003 cycles
LLC TOTAL     ACCESS:    3928072  HIT:     633379  MISS:    3294693
LLC LOAD      ACCESS:    2298389  HIT:     374545  MISS:    1923844
LLC RFO       ACCESS:     696029  HIT:      39425  MISS:     656604
LLC PREFETCH  ACCESS:          0  HIT:          0  MISS:          0
LLC WRITEBACK ACCESS:     933372  HIT:     219341  MISS:     714031
LLC TRANSLATION ACCESS:        282  HIT:         68  MISS:        214
LLC PREFETCH  REQUESTED:          0  ISSUED:          0  USEFUL:          0  USELESS:          0
LLC AVERAGE MISS LATENCY: 727.699 cycles

DRAM Statistics
 CHANNEL 0
 RQ ROW_BUFFER_HIT:     168085  ROW_BUFFER_MISS:    2412394
 DBUS AVG_CONGESTED_CYCLE:    3.97328
 WQ ROW_BUFFER_HIT:      48873  ROW_BUFFER_MISS:     817719  FULL:      12948


CPU 0 Branch Prediction Accuracy: 96.9231% MPKI: 1.73686 Average ROB Occupancy at Mispredict: 309.306
Branch type MPKI
BRANCH_DIRECT_JUMP: 0.00082
BRANCH_INDIRECT: 0.00014
BRANCH_CONDITIONAL: 1.73229
BRANCH_DIRECT_CALL: 0.00185
BRANCH_INDIRECT_CALL: 3e-05
BRANCH_RETURN: 0.00173

