
*** ChampSim Multicore Out-of-Order Simulator ***

Warmup Instructions: 10000000
Simulation Instructions: 100000000
Number of CPUs: 1
Off-chip DRAM Size: 4 GiB Channels: 1 Width: 64-bit Data Rate: 3200 MT/s

VirtualMemory physical capacity: 8588881920 num_ppages: 2096895
VirtualMemory page size: 4096 log2_page_size: 12

CPU 0 runs /datasets/cs240c-wi22-a00-public/data/Assignment2/soplex_217B.trace.xz
CPU 0 Bimodal branch predictor
Basic BTB sets: 1024 ways: 8 indirect buffer size: 4096 RAS size: 64
Initialize Hawkeye state
Initialize SRRIP state
Heartbeat CPU 0 instructions: 10000000 cycles: 2844434 heartbeat IPC: 3.51564 cumulative IPC: 3.51564 (Simulation time: 0 hr 0 min 36 sec) 

Warmup complete CPU 0 instructions: 10000004 cycles: 2844435 (Simulation time: 0 hr 0 min 36 sec) 

Heartbeat CPU 0 instructions: 20000000 cycles: 34878074 heartbeat IPC: 0.312172 cumulative IPC: 0.312172 (Simulation time: 0 hr 2 min 22 sec) 
Heartbeat CPU 0 instructions: 30000004 cycles: 66404984 heartbeat IPC: 0.317189 cumulative IPC: 0.314661 (Simulation time: 0 hr 4 min 8 sec) 
Heartbeat CPU 0 instructions: 40000003 cycles: 97365065 heartbeat IPC: 0.322997 cumulative IPC: 0.317391 (Simulation time: 0 hr 5 min 43 sec) 
Heartbeat CPU 0 instructions: 50000000 cycles: 126256959 heartbeat IPC: 0.346118 cumulative IPC: 0.324116 (Simulation time: 0 hr 7 min 13 sec) 
Heartbeat CPU 0 instructions: 60000002 cycles: 157142084 heartbeat IPC: 0.323781 cumulative IPC: 0.324049 (Simulation time: 0 hr 8 min 54 sec) 
Heartbeat CPU 0 instructions: 70000000 cycles: 201332982 heartbeat IPC: 0.226291 cumulative IPC: 0.302284 (Simulation time: 0 hr 11 min 13 sec) 
Heartbeat CPU 0 instructions: 80000000 cycles: 233466976 heartbeat IPC: 0.311197 cumulative IPC: 0.303526 (Simulation time: 0 hr 12 min 36 sec) 
Heartbeat CPU 0 instructions: 90000002 cycles: 260812167 heartbeat IPC: 0.365695 cumulative IPC: 0.310116 (Simulation time: 0 hr 14 min 6 sec) 
Heartbeat CPU 0 instructions: 100000001 cycles: 292811860 heartbeat IPC: 0.312503 cumulative IPC: 0.31038 (Simulation time: 0 hr 15 min 49 sec) 
Heartbeat CPU 0 instructions: 110000000 cycles: 321703034 heartbeat IPC: 0.346126 cumulative IPC: 0.313619 (Simulation time: 0 hr 17 min 13 sec) 
Finished CPU 0 instructions: 100000000 cycles: 318858601 cumulative IPC: 0.313619 (Simulation time: 0 hr 17 min 13 sec) 

ChampSim completed all CPUs

Region of Interest Statistics

CPU 0 cumulative IPC: 0.313619 instructions: 100000000 cycles: 318858601
cpu0_DTLB TOTAL     ACCESS:   21863643  HIT:   20998123  MISS:     865520
cpu0_DTLB LOAD      ACCESS:   16698746  HIT:   16014562  MISS:     684184
cpu0_DTLB RFO       ACCESS:    5164897  HIT:    4983561  MISS:     181336
cpu0_DTLB PREFETCH  ACCESS:          0  HIT:          0  MISS:          0
cpu0_DTLB WRITEBACK ACCESS:          0  HIT:          0  MISS:          0
cpu0_DTLB TRANSLATION ACCESS:          0  HIT:          0  MISS:          0
cpu0_DTLB PREFETCH  REQUESTED:          0  ISSUED:          0  USEFUL:          0  USELESS:          0
cpu0_DTLB AVERAGE MISS LATENCY: 14.663 cycles
cpu0_ITLB TOTAL     ACCESS:    8481176  HIT:    8481158  MISS:         18
cpu0_ITLB LOAD      ACCESS:    8481176  HIT:    8481158  MISS:         18
cpu0_ITLB RFO       ACCESS:          0  HIT:          0  MISS:          0
cpu0_ITLB PREFETCH  ACCESS:          0  HIT:          0  MISS:          0
cpu0_ITLB WRITEBACK ACCESS:          0  HIT:          0  MISS:          0
cpu0_ITLB TRANSLATION ACCESS:          0  HIT:          0  MISS:          0
cpu0_ITLB PREFETCH  REQUESTED:          0  ISSUED:          0  USEFUL:          0  USELESS:          0
cpu0_ITLB AVERAGE MISS LATENCY: 385.167 cycles
cpu0_L1I TOTAL     ACCESS:     357407  HIT:     356754  MISS:        653
cpu0_L1I LOAD      ACCESS:     357407  HIT:     356754  MISS:        653
cpu0_L1I RFO       ACCESS:          0  HIT:          0  MISS:          0
cpu0_L1I PREFETCH  ACCESS:          0  HIT:          0  MISS:          0
cpu0_L1I WRITEBACK ACCESS:          0  HIT:          0  MISS:          0
cpu0_L1I TRANSLATION ACCESS:          0  HIT:          0  MISS:          0
cpu0_L1I PREFETCH  REQUESTED:          0  ISSUED:          0  USEFUL:          0  USELESS:          0
cpu0_L1I AVERAGE MISS LATENCY: 304.66 cycles
cpu0_STLB TOTAL     ACCESS:     865538  HIT:     742024  MISS:     123514
cpu0_STLB LOAD      ACCESS:     684202  HIT:     570039  MISS:     114163
cpu0_STLB RFO       ACCESS:     181336  HIT:     171985  MISS:       9351
cpu0_STLB PREFETCH  ACCESS:          0  HIT:          0  MISS:          0
cpu0_STLB WRITEBACK ACCESS:          0  HIT:          0  MISS:          0
cpu0_STLB TRANSLATION ACCESS:          0  HIT:          0  MISS:          0
cpu0_STLB PREFETCH  REQUESTED:          0  ISSUED:          0  USEFUL:          0  USELESS:          0
cpu0_STLB AVERAGE MISS LATENCY: 38.5686 cycles
cpu0_L1D TOTAL     ACCESS:   18154022  HIT:   12330005  MISS:    5824017
cpu0_L1D LOAD      ACCESS:   12229290  HIT:    7234935  MISS:    4994355
cpu0_L1D RFO       ACCESS:    5804786  HIT:    4980143  MISS:     824643
cpu0_L1D PREFETCH  ACCESS:          0  HIT:          0  MISS:          0
cpu0_L1D WRITEBACK ACCESS:          0  HIT:          0  MISS:          0
cpu0_L1D TRANSLATION ACCESS:     119946  HIT:     114927  MISS:       5019
cpu0_L1D PREFETCH  REQUESTED:          0  ISSUED:          0  USEFUL:          0  USELESS:          0
cpu0_L1D AVERAGE MISS LATENCY: 199.421 cycles
cpu0_L2C TOTAL     ACCESS:    8411842  HIT:    3954682  MISS:    4457160
cpu0_L2C LOAD      ACCESS:    4994436  HIT:    1232231  MISS:    3762205
cpu0_L2C RFO       ACCESS:     824573  HIT:     130472  MISS:     694101
cpu0_L2C PREFETCH  ACCESS:          0  HIT:          0  MISS:          0
cpu0_L2C WRITEBACK ACCESS:    2587814  HIT:    2587711  MISS:        103
cpu0_L2C TRANSLATION ACCESS:       5019  HIT:       4268  MISS:        751
cpu0_L2C PREFETCH  REQUESTED:          0  ISSUED:          0  USEFUL:          0  USELESS:          0
cpu0_L2C AVERAGE MISS LATENCY: 246.009 cycles
LLC TOTAL     ACCESS:    6307873  HIT:    3252003  MISS:    3055870
LLC LOAD      ACCESS:    3762191  HIT:    1488903  MISS:    2273288
LLC RFO       ACCESS:     694098  HIT:     246732  MISS:     447366
LLC PREFETCH  ACCESS:          0  HIT:          0  MISS:          0
LLC WRITEBACK ACCESS:    1850833  HIT:    1516026  MISS:     334807
LLC TRANSLATION ACCESS:        751  HIT:        342  MISS:        409
LLC PREFETCH  REQUESTED:          0  ISSUED:          0  USEFUL:          0  USELESS:          0
LLC AVERAGE MISS LATENCY: 327.906 cycles

DRAM Statistics
 CHANNEL 0
 RQ ROW_BUFFER_HIT:     295692  ROW_BUFFER_MISS:    2422411
 DBUS AVG_CONGESTED_CYCLE:    3.94843
 WQ ROW_BUFFER_HIT:      44730  ROW_BUFFER_MISS:     894056  FULL:     242654


CPU 0 Branch Prediction Accuracy: 93.2069% MPKI: 14.28 Average ROB Occupancy at Mispredict: 49.4438
Branch type MPKI
BRANCH_DIRECT_JUMP: 0.00099
BRANCH_INDIRECT: 0.00023
BRANCH_CONDITIONAL: 14.2767
BRANCH_DIRECT_CALL: 0.00062
BRANCH_INDIRECT_CALL: 0.00054
BRANCH_RETURN: 0.00093

