
*** ChampSim Multicore Out-of-Order Simulator ***

Warmup Instructions: 10000000
Simulation Instructions: 100000000
Number of CPUs: 1
Off-chip DRAM Size: 4 GiB Channels: 1 Width: 64-bit Data Rate: 3200 MT/s

VirtualMemory physical capacity: 8588881920 num_ppages: 2096895
VirtualMemory page size: 4096 log2_page_size: 12

CPU 0 runs /datasets/cs240c-wi22-a00-public/data/Assignment2/soplex_205B.trace.xz
CPU 0 Bimodal branch predictor
Basic BTB sets: 1024 ways: 8 indirect buffer size: 4096 RAS size: 64
Initialize Hawkeye state
Initialize SRRIP state
Heartbeat CPU 0 instructions: 10000002 cycles: 2865168 heartbeat IPC: 3.4902 cumulative IPC: 3.4902 (Simulation time: 0 hr 0 min 35 sec) 

Warmup complete CPU 0 instructions: 10000002 cycles: 2865168 (Simulation time: 0 hr 0 min 35 sec) 

Heartbeat CPU 0 instructions: 20000004 cycles: 46778643 heartbeat IPC: 0.227721 cumulative IPC: 0.227721 (Simulation time: 0 hr 3 min 38 sec) 
Heartbeat CPU 0 instructions: 30000004 cycles: 82495437 heartbeat IPC: 0.27998 cumulative IPC: 0.251161 (Simulation time: 0 hr 5 min 19 sec) 
Heartbeat CPU 0 instructions: 40000004 cycles: 110958564 heartbeat IPC: 0.351332 cumulative IPC: 0.277538 (Simulation time: 0 hr 7 min 3 sec) 
Heartbeat CPU 0 instructions: 50000001 cycles: 142196748 heartbeat IPC: 0.320121 cumulative IPC: 0.287085 (Simulation time: 0 hr 8 min 54 sec) 
Heartbeat CPU 0 instructions: 60000000 cycles: 169292541 heartbeat IPC: 0.369061 cumulative IPC: 0.300431 (Simulation time: 0 hr 10 min 33 sec) 
Heartbeat CPU 0 instructions: 70000000 cycles: 199584577 heartbeat IPC: 0.33012 cumulative IPC: 0.305003 (Simulation time: 0 hr 12 min 26 sec) 
Heartbeat CPU 0 instructions: 80000003 cycles: 227954400 heartbeat IPC: 0.352487 cumulative IPC: 0.310988 (Simulation time: 0 hr 14 min 1 sec) 
Heartbeat CPU 0 instructions: 90000000 cycles: 260191953 heartbeat IPC: 0.310197 cumulative IPC: 0.310889 (Simulation time: 0 hr 15 min 59 sec) 
Heartbeat CPU 0 instructions: 100000002 cycles: 287636830 heartbeat IPC: 0.364367 cumulative IPC: 0.316043 (Simulation time: 0 hr 17 min 30 sec) 
Heartbeat CPU 0 instructions: 110000000 cycles: 339574558 heartbeat IPC: 0.192538 cumulative IPC: 0.296992 (Simulation time: 0 hr 20 min 21 sec) 
Finished CPU 0 instructions: 100000003 cycles: 336709391 cumulative IPC: 0.296992 (Simulation time: 0 hr 20 min 21 sec) 

ChampSim completed all CPUs

Region of Interest Statistics

CPU 0 cumulative IPC: 0.296992 instructions: 100000003 cycles: 336709391
cpu0_DTLB TOTAL     ACCESS:   22256817  HIT:   21294329  MISS:     962488
cpu0_DTLB LOAD      ACCESS:   16516337  HIT:   15775787  MISS:     740550
cpu0_DTLB RFO       ACCESS:    5740480  HIT:    5518542  MISS:     221938
cpu0_DTLB PREFETCH  ACCESS:          0  HIT:          0  MISS:          0
cpu0_DTLB WRITEBACK ACCESS:          0  HIT:          0  MISS:          0
cpu0_DTLB TRANSLATION ACCESS:          0  HIT:          0  MISS:          0
cpu0_DTLB PREFETCH  REQUESTED:          0  ISSUED:          0  USEFUL:          0  USELESS:          0
cpu0_DTLB AVERAGE MISS LATENCY: 15.8553 cycles
cpu0_ITLB TOTAL     ACCESS:    7978353  HIT:    7978336  MISS:         17
cpu0_ITLB LOAD      ACCESS:    7978353  HIT:    7978336  MISS:         17
cpu0_ITLB RFO       ACCESS:          0  HIT:          0  MISS:          0
cpu0_ITLB PREFETCH  ACCESS:          0  HIT:          0  MISS:          0
cpu0_ITLB WRITEBACK ACCESS:          0  HIT:          0  MISS:          0
cpu0_ITLB TRANSLATION ACCESS:          0  HIT:          0  MISS:          0
cpu0_ITLB PREFETCH  REQUESTED:          0  ISSUED:          0  USEFUL:          0  USELESS:          0
cpu0_ITLB AVERAGE MISS LATENCY: 383.353 cycles
cpu0_L1I TOTAL     ACCESS:     823091  HIT:     822318  MISS:        773
cpu0_L1I LOAD      ACCESS:     823091  HIT:     822318  MISS:        773
cpu0_L1I RFO       ACCESS:          0  HIT:          0  MISS:          0
cpu0_L1I PREFETCH  ACCESS:          0  HIT:          0  MISS:          0
cpu0_L1I WRITEBACK ACCESS:          0  HIT:          0  MISS:          0
cpu0_L1I TRANSLATION ACCESS:          0  HIT:          0  MISS:          0
cpu0_L1I PREFETCH  REQUESTED:          0  ISSUED:          0  USEFUL:          0  USELESS:          0
cpu0_L1I AVERAGE MISS LATENCY: 329.014 cycles
cpu0_STLB TOTAL     ACCESS:     962505  HIT:     806943  MISS:     155562
cpu0_STLB LOAD      ACCESS:     740567  HIT:     595832  MISS:     144735
cpu0_STLB RFO       ACCESS:     221938  HIT:     211111  MISS:      10827
cpu0_STLB PREFETCH  ACCESS:          0  HIT:          0  MISS:          0
cpu0_STLB WRITEBACK ACCESS:          0  HIT:          0  MISS:          0
cpu0_STLB TRANSLATION ACCESS:          0  HIT:          0  MISS:          0
cpu0_STLB PREFETCH  REQUESTED:          0  ISSUED:          0  USEFUL:          0  USELESS:          0
cpu0_STLB AVERAGE MISS LATENCY: 41.5227 cycles
cpu0_L1D TOTAL     ACCESS:   19223601  HIT:   13433023  MISS:    5790578
cpu0_L1D LOAD      ACCESS:   12652957  HIT:    7818379  MISS:    4834578
cpu0_L1D RFO       ACCESS:    6418956  HIT:    5468597  MISS:     950359
cpu0_L1D PREFETCH  ACCESS:          0  HIT:          0  MISS:          0
cpu0_L1D WRITEBACK ACCESS:          0  HIT:          0  MISS:          0
cpu0_L1D TRANSLATION ACCESS:     151688  HIT:     146047  MISS:       5641
cpu0_L1D PREFETCH  REQUESTED:          0  ISSUED:          0  USEFUL:          0  USELESS:          0
cpu0_L1D AVERAGE MISS LATENCY: 227.004 cycles
cpu0_L2C TOTAL     ACCESS:    8360913  HIT:    3855173  MISS:    4505740
cpu0_L2C LOAD      ACCESS:    4834928  HIT:    1131334  MISS:    3703594
cpu0_L2C RFO       ACCESS:     950289  HIT:     149034  MISS:     801255
cpu0_L2C PREFETCH  ACCESS:          0  HIT:          0  MISS:          0
cpu0_L2C WRITEBACK ACCESS:    2570055  HIT:    2569982  MISS:         73
cpu0_L2C TRANSLATION ACCESS:       5641  HIT:       4823  MISS:        818
cpu0_L2C PREFETCH  REQUESTED:          0  ISSUED:          0  USEFUL:          0  USELESS:          0
cpu0_L2C AVERAGE MISS LATENCY: 277.44 cycles
LLC TOTAL     ACCESS:    6405788  HIT:    3149889  MISS:    3255899
LLC LOAD      ACCESS:    3703575  HIT:    1402400  MISS:    2301175
LLC RFO       ACCESS:     801249  HIT:     302706  MISS:     498543
LLC PREFETCH  ACCESS:          0  HIT:          0  MISS:          0
LLC WRITEBACK ACCESS:    1900146  HIT:    1444352  MISS:     455794
LLC TRANSLATION ACCESS:        818  HIT:        431  MISS:        387
LLC PREFETCH  REQUESTED:          0  ISSUED:          0  USEFUL:          0  USELESS:          0
LLC AVERAGE MISS LATENCY: 354.396 cycles

DRAM Statistics
 CHANNEL 0
 RQ ROW_BUFFER_HIT:     298466  ROW_BUFFER_MISS:    2499486
 DBUS AVG_CONGESTED_CYCLE:    3.95777
 WQ ROW_BUFFER_HIT:      48476  ROW_BUFFER_MISS:     999488  FULL:     546506


CPU 0 Branch Prediction Accuracy: 93.3985% MPKI: 13.5305 Average ROB Occupancy at Mispredict: 48.1265
Branch type MPKI
BRANCH_DIRECT_JUMP: 0.00081
BRANCH_INDIRECT: 0.00022
BRANCH_CONDITIONAL: 13.5274
BRANCH_DIRECT_CALL: 0.00058
BRANCH_INDIRECT_CALL: 0.00056
BRANCH_RETURN: 0.00094

