
*** ChampSim Multicore Out-of-Order Simulator ***

Warmup Instructions: 10000000
Simulation Instructions: 100000000
Number of CPUs: 1
Off-chip DRAM Size: 4 GiB Channels: 1 Width: 64-bit Data Rate: 3200 MT/s

VirtualMemory physical capacity: 8588881920 num_ppages: 2096895
VirtualMemory page size: 4096 log2_page_size: 12

CPU 0 runs /datasets/cs240c-wi22-a00-public/data/Assignment2/soplex_66B.trace.xz
CPU 0 Bimodal branch predictor
Basic BTB sets: 1024 ways: 8 indirect buffer size: 4096 RAS size: 64
Initialize Hawkeye state
Initialize SRRIP state
Heartbeat CPU 0 instructions: 10000001 cycles: 2688399 heartbeat IPC: 3.71969 cumulative IPC: 3.71969 (Simulation time: 0 hr 0 min 29 sec) 

Warmup complete CPU 0 instructions: 10000001 cycles: 2688399 (Simulation time: 0 hr 0 min 29 sec) 

Heartbeat CPU 0 instructions: 20000003 cycles: 27566582 heartbeat IPC: 0.401959 cumulative IPC: 0.401959 (Simulation time: 0 hr 1 min 49 sec) 
Heartbeat CPU 0 instructions: 30000001 cycles: 51659534 heartbeat IPC: 0.415059 cumulative IPC: 0.408404 (Simulation time: 0 hr 3 min 12 sec) 
Heartbeat CPU 0 instructions: 40000002 cycles: 75372810 heartbeat IPC: 0.421705 cumulative IPC: 0.412743 (Simulation time: 0 hr 4 min 28 sec) 
Heartbeat CPU 0 instructions: 50000002 cycles: 109312718 heartbeat IPC: 0.294638 cumulative IPC: 0.375149 (Simulation time: 0 hr 6 min 30 sec) 
Heartbeat CPU 0 instructions: 60000002 cycles: 143380853 heartbeat IPC: 0.293529 cumulative IPC: 0.355385 (Simulation time: 0 hr 8 min 34 sec) 
Heartbeat CPU 0 instructions: 70000001 cycles: 169766946 heartbeat IPC: 0.378987 cumulative IPC: 0.359113 (Simulation time: 0 hr 10 min 4 sec) 
Heartbeat CPU 0 instructions: 80000001 cycles: 197283783 heartbeat IPC: 0.363414 cumulative IPC: 0.359721 (Simulation time: 0 hr 11 min 44 sec) 
Heartbeat CPU 0 instructions: 90000003 cycles: 221658635 heartbeat IPC: 0.410259 cumulative IPC: 0.365346 (Simulation time: 0 hr 13 min 4 sec) 
Heartbeat CPU 0 instructions: 100000000 cycles: 246090781 heartbeat IPC: 0.409297 cumulative IPC: 0.369758 (Simulation time: 0 hr 14 min 24 sec) 
Heartbeat CPU 0 instructions: 110000002 cycles: 270706723 heartbeat IPC: 0.406241 cumulative IPC: 0.373109 (Simulation time: 0 hr 15 min 47 sec) 
Finished CPU 0 instructions: 100000001 cycles: 268018324 cumulative IPC: 0.373109 (Simulation time: 0 hr 15 min 47 sec) 

ChampSim completed all CPUs

Region of Interest Statistics

CPU 0 cumulative IPC: 0.373109 instructions: 100000001 cycles: 268018324
cpu0_DTLB TOTAL     ACCESS:   19881795  HIT:   19304527  MISS:     577268
cpu0_DTLB LOAD      ACCESS:   14815480  HIT:   14358280  MISS:     457200
cpu0_DTLB RFO       ACCESS:    5066315  HIT:    4946247  MISS:     120068
cpu0_DTLB PREFETCH  ACCESS:          0  HIT:          0  MISS:          0
cpu0_DTLB WRITEBACK ACCESS:          0  HIT:          0  MISS:          0
cpu0_DTLB TRANSLATION ACCESS:          0  HIT:          0  MISS:          0
cpu0_DTLB PREFETCH  REQUESTED:          0  ISSUED:          0  USEFUL:          0  USELESS:          0
cpu0_DTLB AVERAGE MISS LATENCY: 16.8565 cycles
cpu0_ITLB TOTAL     ACCESS:    8258109  HIT:    8258091  MISS:         18
cpu0_ITLB LOAD      ACCESS:    8258109  HIT:    8258091  MISS:         18
cpu0_ITLB RFO       ACCESS:          0  HIT:          0  MISS:          0
cpu0_ITLB PREFETCH  ACCESS:          0  HIT:          0  MISS:          0
cpu0_ITLB WRITEBACK ACCESS:          0  HIT:          0  MISS:          0
cpu0_ITLB TRANSLATION ACCESS:          0  HIT:          0  MISS:          0
cpu0_ITLB PREFETCH  REQUESTED:          0  ISSUED:          0  USEFUL:          0  USELESS:          0
cpu0_ITLB AVERAGE MISS LATENCY: 343.222 cycles
cpu0_L1I TOTAL     ACCESS:    1901764  HIT:    1900903  MISS:        861
cpu0_L1I LOAD      ACCESS:    1901764  HIT:    1900903  MISS:        861
cpu0_L1I RFO       ACCESS:          0  HIT:          0  MISS:          0
cpu0_L1I PREFETCH  ACCESS:          0  HIT:          0  MISS:          0
cpu0_L1I WRITEBACK ACCESS:          0  HIT:          0  MISS:          0
cpu0_L1I TRANSLATION ACCESS:          0  HIT:          0  MISS:          0
cpu0_L1I PREFETCH  REQUESTED:          0  ISSUED:          0  USEFUL:          0  USELESS:          0
cpu0_L1I AVERAGE MISS LATENCY: 290.857 cycles
cpu0_STLB TOTAL     ACCESS:     577286  HIT:     474367  MISS:     102919
cpu0_STLB LOAD      ACCESS:     457218  HIT:     362141  MISS:      95077
cpu0_STLB RFO       ACCESS:     120068  HIT:     112226  MISS:       7842
cpu0_STLB PREFETCH  ACCESS:          0  HIT:          0  MISS:          0
cpu0_STLB WRITEBACK ACCESS:          0  HIT:          0  MISS:          0
cpu0_STLB TRANSLATION ACCESS:          0  HIT:          0  MISS:          0
cpu0_STLB PREFETCH  REQUESTED:          0  ISSUED:          0  USEFUL:          0  USELESS:          0
cpu0_STLB AVERAGE MISS LATENCY: 43.537 cycles
cpu0_L1D TOTAL     ACCESS:   17101080  HIT:   12784021  MISS:    4317059
cpu0_L1D LOAD      ACCESS:   11101764  HIT:    7503421  MISS:    3598343
cpu0_L1D RFO       ACCESS:    5899273  HIT:    5183198  MISS:     716075
cpu0_L1D PREFETCH  ACCESS:          0  HIT:          0  MISS:          0
cpu0_L1D WRITEBACK ACCESS:          0  HIT:          0  MISS:          0
cpu0_L1D TRANSLATION ACCESS:     100043  HIT:      97402  MISS:       2641
cpu0_L1D PREFETCH  REQUESTED:          0  ISSUED:          0  USEFUL:          0  USELESS:          0
cpu0_L1D AVERAGE MISS LATENCY: 213.945 cycles
cpu0_L2C TOTAL     ACCESS:    6105413  HIT:    2608026  MISS:    3497387
cpu0_L2C LOAD      ACCESS:    3599081  HIT:     717326  MISS:    2881755
cpu0_L2C RFO       ACCESS:     716020  HIT:     101654  MISS:     614366
cpu0_L2C PREFETCH  ACCESS:          0  HIT:          0  MISS:          0
cpu0_L2C WRITEBACK ACCESS:    1787671  HIT:    1787131  MISS:        540
cpu0_L2C TRANSLATION ACCESS:       2641  HIT:       1915  MISS:        726
cpu0_L2C PREFETCH  REQUESTED:          0  ISSUED:          0  USEFUL:          0  USELESS:          0
cpu0_L2C AVERAGE MISS LATENCY: 250.387 cycles
LLC TOTAL     ACCESS:    4877049  HIT:    2428142  MISS:    2448907
LLC LOAD      ACCESS:    2881744  HIT:    1217296  MISS:    1664448
LLC RFO       ACCESS:     614366  HIT:     257613  MISS:     356753
LLC PREFETCH  ACCESS:          0  HIT:          0  MISS:          0
LLC WRITEBACK ACCESS:    1380213  HIT:     952805  MISS:     427408
LLC TRANSLATION ACCESS:        726  HIT:        428  MISS:        298
LLC PREFETCH  REQUESTED:          0  ISSUED:          0  USEFUL:          0  USELESS:          0
LLC AVERAGE MISS LATENCY: 325.31 cycles

DRAM Statistics
 CHANNEL 0
 RQ ROW_BUFFER_HIT:     342854  ROW_BUFFER_MISS:    1676958
 DBUS AVG_CONGESTED_CYCLE:    3.94845
 WQ ROW_BUFFER_HIT:      54455  ROW_BUFFER_MISS:     702485  FULL:     902907


CPU 0 Branch Prediction Accuracy: 91.9788% MPKI: 17.5693 Average ROB Occupancy at Mispredict: 27.5859
Branch type MPKI
BRANCH_DIRECT_JUMP: 0.00093
BRANCH_INDIRECT: 0.00028
BRANCH_CONDITIONAL: 17.5659
BRANCH_DIRECT_CALL: 0.00064
BRANCH_INDIRECT_CALL: 0.00043
BRANCH_RETURN: 0.00108

