
*** ChampSim Multicore Out-of-Order Simulator ***

Warmup Instructions: 10000000
Simulation Instructions: 100000000
Number of CPUs: 1
Off-chip DRAM Size: 4 GiB Channels: 1 Width: 64-bit Data Rate: 3200 MT/s

VirtualMemory physical capacity: 8588881920 num_ppages: 2096895
VirtualMemory page size: 4096 log2_page_size: 12

CPU 0 runs /datasets/cs240c-wi22-a00-public/data/Assignment2/cactusADM_1039B.trace.xz
CPU 0 Bimodal branch predictor
Basic BTB sets: 1024 ways: 8 indirect buffer size: 4096 RAS size: 64
Initialize Hawkeye state
Initialize SRRIP state
Heartbeat CPU 0 instructions: 10000004 cycles: 3647107 heartbeat IPC: 2.7419 cumulative IPC: 2.7419 (Simulation time: 0 hr 0 min 52 sec) 

Warmup complete CPU 0 instructions: 10000004 cycles: 3647107 (Simulation time: 0 hr 0 min 52 sec) 

Heartbeat CPU 0 instructions: 20000004 cycles: 13372893 heartbeat IPC: 1.02819 cumulative IPC: 1.02819 (Simulation time: 0 hr 2 min 27 sec) 
Heartbeat CPU 0 instructions: 30000000 cycles: 22430050 heartbeat IPC: 1.1041 cumulative IPC: 1.0648 (Simulation time: 0 hr 4 min 0 sec) 
Heartbeat CPU 0 instructions: 40000000 cycles: 31974920 heartbeat IPC: 1.04768 cumulative IPC: 1.05903 (Simulation time: 0 hr 5 min 35 sec) 
Heartbeat CPU 0 instructions: 50000004 cycles: 40615576 heartbeat IPC: 1.15732 cumulative IPC: 1.082 (Simulation time: 0 hr 7 min 6 sec) 
Heartbeat CPU 0 instructions: 60000004 cycles: 46673983 heartbeat IPC: 1.6506 cumulative IPC: 1.16206 (Simulation time: 0 hr 8 min 24 sec) 
Heartbeat CPU 0 instructions: 70000003 cycles: 55556412 heartbeat IPC: 1.12582 cumulative IPC: 1.15586 (Simulation time: 0 hr 9 min 55 sec) 
Heartbeat CPU 0 instructions: 80000004 cycles: 64074534 heartbeat IPC: 1.17397 cumulative IPC: 1.15841 (Simulation time: 0 hr 11 min 24 sec) 
Heartbeat CPU 0 instructions: 90000004 cycles: 72727127 heartbeat IPC: 1.15572 cumulative IPC: 1.15808 (Simulation time: 0 hr 12 min 55 sec) 
Heartbeat CPU 0 instructions: 100000000 cycles: 78863936 heartbeat IPC: 1.62951 cumulative IPC: 1.19654 (Simulation time: 0 hr 14 min 14 sec) 
Heartbeat CPU 0 instructions: 110000003 cycles: 87304260 heartbeat IPC: 1.18479 cumulative IPC: 1.19536 (Simulation time: 0 hr 15 min 42 sec) 
Finished CPU 0 instructions: 100000004 cycles: 83657154 cumulative IPC: 1.19536 (Simulation time: 0 hr 15 min 42 sec) 

ChampSim completed all CPUs

Region of Interest Statistics

CPU 0 cumulative IPC: 1.19536 instructions: 100000004 cycles: 83657154
cpu0_DTLB TOTAL     ACCESS:   22858749  HIT:   20809374  MISS:    2049375
cpu0_DTLB LOAD      ACCESS:   18946013  HIT:   17513241  MISS:    1432772
cpu0_DTLB RFO       ACCESS:    3912736  HIT:    3296133  MISS:     616603
cpu0_DTLB PREFETCH  ACCESS:          0  HIT:          0  MISS:          0
cpu0_DTLB WRITEBACK ACCESS:          0  HIT:          0  MISS:          0
cpu0_DTLB TRANSLATION ACCESS:          0  HIT:          0  MISS:          0
cpu0_DTLB PREFETCH  REQUESTED:          0  ISSUED:          0  USEFUL:          0  USELESS:          0
cpu0_DTLB AVERAGE MISS LATENCY: 16.2124 cycles
cpu0_ITLB TOTAL     ACCESS:    1451282  HIT:    1451282  MISS:          0
cpu0_ITLB LOAD      ACCESS:    1451282  HIT:    1451282  MISS:          0
cpu0_ITLB RFO       ACCESS:          0  HIT:          0  MISS:          0
cpu0_ITLB PREFETCH  ACCESS:          0  HIT:          0  MISS:          0
cpu0_ITLB WRITEBACK ACCESS:          0  HIT:          0  MISS:          0
cpu0_ITLB TRANSLATION ACCESS:          0  HIT:          0  MISS:          0
cpu0_ITLB PREFETCH  REQUESTED:          0  ISSUED:          0  USEFUL:          0  USELESS:          0
cpu0_ITLB AVERAGE MISS LATENCY: -nan cycles
cpu0_L1I TOTAL     ACCESS:    8117932  HIT:    8117929  MISS:          3
cpu0_L1I LOAD      ACCESS:    8117932  HIT:    8117929  MISS:          3
cpu0_L1I RFO       ACCESS:          0  HIT:          0  MISS:          0
cpu0_L1I PREFETCH  ACCESS:          0  HIT:          0  MISS:          0
cpu0_L1I WRITEBACK ACCESS:          0  HIT:          0  MISS:          0
cpu0_L1I TRANSLATION ACCESS:          0  HIT:          0  MISS:          0
cpu0_L1I PREFETCH  REQUESTED:          0  ISSUED:          0  USEFUL:          0  USELESS:          0
cpu0_L1I AVERAGE MISS LATENCY: 635.333 cycles
cpu0_STLB TOTAL     ACCESS:    2049375  HIT:    1129186  MISS:     920189
cpu0_STLB LOAD      ACCESS:    1432772  HIT:     834663  MISS:     598109
cpu0_STLB RFO       ACCESS:     616603  HIT:     294523  MISS:     322080
cpu0_STLB PREFETCH  ACCESS:          0  HIT:          0  MISS:          0
cpu0_STLB WRITEBACK ACCESS:          0  HIT:          0  MISS:          0
cpu0_STLB TRANSLATION ACCESS:          0  HIT:          0  MISS:          0
cpu0_STLB PREFETCH  REQUESTED:          0  ISSUED:          0  USEFUL:          0  USELESS:          0
cpu0_STLB AVERAGE MISS LATENCY: 15.9038 cycles
cpu0_L1D TOTAL     ACCESS:   37599683  HIT:   36275932  MISS:    1323751
cpu0_L1D LOAD      ACCESS:   25706507  HIT:   24654103  MISS:    1052404
cpu0_L1D RFO       ACCESS:   10973839  HIT:   10708468  MISS:     265371
cpu0_L1D PREFETCH  ACCESS:          0  HIT:          0  MISS:          0
cpu0_L1D WRITEBACK ACCESS:          0  HIT:          0  MISS:          0
cpu0_L1D TRANSLATION ACCESS:     919337  HIT:     913361  MISS:       5976
cpu0_L1D PREFETCH  REQUESTED:          0  ISSUED:          0  USEFUL:          0  USELESS:          0
cpu0_L1D AVERAGE MISS LATENCY: 292.156 cycles
cpu0_L2C TOTAL     ACCESS:    1593018  HIT:     694191  MISS:     898827
cpu0_L2C LOAD      ACCESS:    1052407  HIT:     419484  MISS:     632923
cpu0_L2C RFO       ACCESS:     265371  HIT:          0  MISS:     265371
cpu0_L2C PREFETCH  ACCESS:          0  HIT:          0  MISS:          0
cpu0_L2C WRITEBACK ACCESS:     269264  HIT:     269053  MISS:        211
cpu0_L2C TRANSLATION ACCESS:       5976  HIT:       5654  MISS:        322
cpu0_L2C PREFETCH  REQUESTED:          0  ISSUED:          0  USEFUL:          0  USELESS:          0
cpu0_L2C AVERAGE MISS LATENCY: 414.054 cycles
LLC TOTAL     ACCESS:    1165778  HIT:     344546  MISS:     821232
LLC LOAD      ACCESS:     632923  HIT:     158194  MISS:     474729
LLC RFO       ACCESS:     265371  HIT:      79226  MISS:     186145
LLC PREFETCH  ACCESS:          0  HIT:          0  MISS:          0
LLC WRITEBACK ACCESS:     267162  HIT:     107069  MISS:     160093
LLC TRANSLATION ACCESS:        322  HIT:         57  MISS:        265
LLC PREFETCH  REQUESTED:          0  ISSUED:          0  USEFUL:          0  USELESS:          0
LLC AVERAGE MISS LATENCY: 430.196 cycles

DRAM Statistics
 CHANNEL 0
 RQ ROW_BUFFER_HIT:       6464  ROW_BUFFER_MISS:     654671
 DBUS AVG_CONGESTED_CYCLE:    3.97575
 WQ ROW_BUFFER_HIT:      16741  ROW_BUFFER_MISS:     208273  FULL:        275


CPU 0 Branch Prediction Accuracy: 97.7479% MPKI: 0.04701 Average ROB Occupancy at Mispredict: 283.895
Branch type MPKI
BRANCH_DIRECT_JUMP: 0
BRANCH_INDIRECT: 0
BRANCH_CONDITIONAL: 0.04701
BRANCH_DIRECT_CALL: 0
BRANCH_INDIRECT_CALL: 0
BRANCH_RETURN: 0

