
*** ChampSim Multicore Out-of-Order Simulator ***

Warmup Instructions: 10000000
Simulation Instructions: 100000000
Number of CPUs: 1
Off-chip DRAM Size: 4 GiB Channels: 1 Width: 64-bit Data Rate: 3200 MT/s

VirtualMemory physical capacity: 8588881920 num_ppages: 2096895
VirtualMemory page size: 4096 log2_page_size: 12

CPU 0 runs /datasets/cs240c-wi22-a00-public/data/Assignment2/gcc_13B.trace.xz
CPU 0 Bimodal branch predictor
Basic BTB sets: 1024 ways: 8 indirect buffer size: 4096 RAS size: 64
Initialize Hawkeye state
Initialize SRRIP state
Heartbeat CPU 0 instructions: 10000003 cycles: 2971510 heartbeat IPC: 3.36529 cumulative IPC: 3.36529 (Simulation time: 0 hr 0 min 39 sec) 

Warmup complete CPU 0 instructions: 10000003 cycles: 2971510 (Simulation time: 0 hr 0 min 39 sec) 

Heartbeat CPU 0 instructions: 20000003 cycles: 50734486 heartbeat IPC: 0.209367 cumulative IPC: 0.209367 (Simulation time: 0 hr 2 min 28 sec) 
Heartbeat CPU 0 instructions: 30000002 cycles: 104706578 heartbeat IPC: 0.185281 cumulative IPC: 0.196589 (Simulation time: 0 hr 4 min 22 sec) 
Heartbeat CPU 0 instructions: 40000004 cycles: 141939133 heartbeat IPC: 0.268582 cumulative IPC: 0.215878 (Simulation time: 0 hr 6 min 8 sec) 
Heartbeat CPU 0 instructions: 50000002 cycles: 160051779 heartbeat IPC: 0.5521 cumulative IPC: 0.254647 (Simulation time: 0 hr 6 min 49 sec) 
Heartbeat CPU 0 instructions: 60000003 cycles: 178038218 heartbeat IPC: 0.555974 cumulative IPC: 0.285605 (Simulation time: 0 hr 7 min 29 sec) 
Heartbeat CPU 0 instructions: 70000000 cycles: 196433253 heartbeat IPC: 0.543625 cumulative IPC: 0.310139 (Simulation time: 0 hr 8 min 8 sec) 
Heartbeat CPU 0 instructions: 80000002 cycles: 214502161 heartbeat IPC: 0.553437 cumulative IPC: 0.330921 (Simulation time: 0 hr 8 min 47 sec) 
Heartbeat CPU 0 instructions: 90000000 cycles: 232626327 heartbeat IPC: 0.551749 cumulative IPC: 0.348349 (Simulation time: 0 hr 9 min 25 sec) 
Heartbeat CPU 0 instructions: 100000000 cycles: 250417181 heartbeat IPC: 0.562087 cumulative IPC: 0.363716 (Simulation time: 0 hr 10 min 3 sec) 
Heartbeat CPU 0 instructions: 110000002 cycles: 275929408 heartbeat IPC: 0.391969 cumulative IPC: 0.366357 (Simulation time: 0 hr 10 min 51 sec) 
Finished CPU 0 instructions: 100000004 cycles: 272957899 cumulative IPC: 0.366357 (Simulation time: 0 hr 10 min 51 sec) 

ChampSim completed all CPUs

Region of Interest Statistics

CPU 0 cumulative IPC: 0.366357 instructions: 100000004 cycles: 272957899
cpu0_DTLB TOTAL     ACCESS:   19465543  HIT:   19363359  MISS:     102184
cpu0_DTLB LOAD      ACCESS:   14028484  HIT:   13941311  MISS:      87173
cpu0_DTLB RFO       ACCESS:    5437059  HIT:    5422048  MISS:      15011
cpu0_DTLB PREFETCH  ACCESS:          0  HIT:          0  MISS:          0
cpu0_DTLB WRITEBACK ACCESS:          0  HIT:          0  MISS:          0
cpu0_DTLB TRANSLATION ACCESS:          0  HIT:          0  MISS:          0
cpu0_DTLB PREFETCH  REQUESTED:          0  ISSUED:          0  USEFUL:          0  USELESS:          0
cpu0_DTLB AVERAGE MISS LATENCY: 30.9034 cycles
cpu0_ITLB TOTAL     ACCESS:   10352096  HIT:   10352035  MISS:         61
cpu0_ITLB LOAD      ACCESS:   10352096  HIT:   10352035  MISS:         61
cpu0_ITLB RFO       ACCESS:          0  HIT:          0  MISS:          0
cpu0_ITLB PREFETCH  ACCESS:          0  HIT:          0  MISS:          0
cpu0_ITLB WRITEBACK ACCESS:          0  HIT:          0  MISS:          0
cpu0_ITLB TRANSLATION ACCESS:          0  HIT:          0  MISS:          0
cpu0_ITLB PREFETCH  REQUESTED:          0  ISSUED:          0  USEFUL:          0  USELESS:          0
cpu0_ITLB AVERAGE MISS LATENCY: 146.672 cycles
cpu0_L1I TOTAL     ACCESS:    6565303  HIT:    6564932  MISS:        371
cpu0_L1I LOAD      ACCESS:    6565303  HIT:    6564932  MISS:        371
cpu0_L1I RFO       ACCESS:          0  HIT:          0  MISS:          0
cpu0_L1I PREFETCH  ACCESS:          0  HIT:          0  MISS:          0
cpu0_L1I WRITEBACK ACCESS:          0  HIT:          0  MISS:          0
cpu0_L1I TRANSLATION ACCESS:          0  HIT:          0  MISS:          0
cpu0_L1I PREFETCH  REQUESTED:          0  ISSUED:          0  USEFUL:          0  USELESS:          0
cpu0_L1I AVERAGE MISS LATENCY: 176.086 cycles
cpu0_STLB TOTAL     ACCESS:     102245  HIT:      33345  MISS:      68900
cpu0_STLB LOAD      ACCESS:      87234  HIT:      30319  MISS:      56915
cpu0_STLB RFO       ACCESS:      15011  HIT:       3026  MISS:      11985
cpu0_STLB PREFETCH  ACCESS:          0  HIT:          0  MISS:          0
cpu0_STLB WRITEBACK ACCESS:          0  HIT:          0  MISS:          0
cpu0_STLB TRANSLATION ACCESS:          0  HIT:          0  MISS:          0
cpu0_STLB PREFETCH  REQUESTED:          0  ISSUED:          0  USEFUL:          0  USELESS:          0
cpu0_STLB AVERAGE MISS LATENCY: 32.6001 cycles
cpu0_L1D TOTAL     ACCESS:   26268191  HIT:   24724431  MISS:    1543760
cpu0_L1D LOAD      ACCESS:   12778645  HIT:   11512024  MISS:    1266621
cpu0_L1D RFO       ACCESS:   13420833  HIT:   13144766  MISS:     276067
cpu0_L1D PREFETCH  ACCESS:          0  HIT:          0  MISS:          0
cpu0_L1D WRITEBACK ACCESS:          0  HIT:          0  MISS:          0
cpu0_L1D TRANSLATION ACCESS:      68713  HIT:      67641  MISS:       1072
cpu0_L1D PREFETCH  REQUESTED:          0  ISSUED:          0  USEFUL:          0  USELESS:          0
cpu0_L1D AVERAGE MISS LATENCY: 271.3 cycles
cpu0_L2C TOTAL     ACCESS:    1956427  HIT:     461382  MISS:    1495045
cpu0_L2C LOAD      ACCESS:    1266992  HIT:      46456  MISS:    1220536
cpu0_L2C RFO       ACCESS:     276067  HIT:       1818  MISS:     274249
cpu0_L2C PREFETCH  ACCESS:          0  HIT:          0  MISS:          0
cpu0_L2C WRITEBACK ACCESS:     412296  HIT:     412245  MISS:         51
cpu0_L2C TRANSLATION ACCESS:       1072  HIT:        863  MISS:        209
cpu0_L2C PREFETCH  REQUESTED:          0  ISSUED:          0  USEFUL:          0  USELESS:          0
cpu0_L2C AVERAGE MISS LATENCY: 268.791 cycles
LLC TOTAL     ACCESS:    1904991  HIT:     236338  MISS:    1668653
LLC LOAD      ACCESS:    1220536  HIT:     105475  MISS:    1115061
LLC RFO       ACCESS:     274249  HIT:      25251  MISS:     248998
LLC PREFETCH  ACCESS:          0  HIT:          0  MISS:          0
LLC WRITEBACK ACCESS:     409997  HIT:     105482  MISS:     304515
LLC TRANSLATION ACCESS:        209  HIT:        130  MISS:         79
LLC PREFETCH  REQUESTED:          0  ISSUED:          0  USEFUL:          0  USELESS:          0
LLC AVERAGE MISS LATENCY: 222.009 cycles

DRAM Statistics
 CHANNEL 0
 RQ ROW_BUFFER_HIT:     209945  ROW_BUFFER_MISS:    1154065
 DBUS AVG_CONGESTED_CYCLE:    3.93252
 WQ ROW_BUFFER_HIT:      38992  ROW_BUFFER_MISS:     336862  FULL:       7659


CPU 0 Branch Prediction Accuracy: 87.437% MPKI: 28.6507 Average ROB Occupancy at Mispredict: 19.8943
Branch type MPKI
BRANCH_DIRECT_JUMP: 0.0008
BRANCH_INDIRECT: 0.00403
BRANCH_CONDITIONAL: 28.6428
BRANCH_DIRECT_CALL: 0.00114
BRANCH_INDIRECT_CALL: 0.0008
BRANCH_RETURN: 0.00114

