
*** ChampSim Multicore Out-of-Order Simulator ***

Warmup Instructions: 10000000
Simulation Instructions: 100000000
Number of CPUs: 1
Off-chip DRAM Size: 4 GiB Channels: 1 Width: 64-bit Data Rate: 3200 MT/s

VirtualMemory physical capacity: 8588881920 num_ppages: 2096895
VirtualMemory page size: 4096 log2_page_size: 12

CPU 0 runs /datasets/cs240c-wi22-a00-public/data/Assignment2/lbm_94B.trace.xz
CPU 0 Bimodal branch predictor
Basic BTB sets: 1024 ways: 8 indirect buffer size: 4096 RAS size: 64
Initialize Hawkeye state
Initialize SRRIP state
Heartbeat CPU 0 instructions: 10000000 cycles: 2544759 heartbeat IPC: 3.92965 cumulative IPC: 3.92965 (Simulation time: 0 hr 0 min 26 sec) 

Warmup complete CPU 0 instructions: 10000004 cycles: 2544760 (Simulation time: 0 hr 0 min 26 sec) 

Heartbeat CPU 0 instructions: 20000000 cycles: 37375712 heartbeat IPC: 0.287101 cumulative IPC: 0.287101 (Simulation time: 0 hr 2 min 53 sec) 
Heartbeat CPU 0 instructions: 30000004 cycles: 71939994 heartbeat IPC: 0.289316 cumulative IPC: 0.288204 (Simulation time: 0 hr 5 min 20 sec) 
Heartbeat CPU 0 instructions: 40000000 cycles: 106033956 heartbeat IPC: 0.293307 cumulative IPC: 0.289885 (Simulation time: 0 hr 7 min 45 sec) 
Heartbeat CPU 0 instructions: 50000001 cycles: 139233488 heartbeat IPC: 0.301209 cumulative IPC: 0.292636 (Simulation time: 0 hr 10 min 6 sec) 
Heartbeat CPU 0 instructions: 60000003 cycles: 171438692 heartbeat IPC: 0.310509 cumulative IPC: 0.296044 (Simulation time: 0 hr 12 min 20 sec) 
Heartbeat CPU 0 instructions: 70000001 cycles: 202902472 heartbeat IPC: 0.317826 cumulative IPC: 0.299464 (Simulation time: 0 hr 14 min 30 sec) 
Heartbeat CPU 0 instructions: 80000003 cycles: 234100506 heartbeat IPC: 0.320533 cumulative IPC: 0.302303 (Simulation time: 0 hr 16 min 41 sec) 
Heartbeat CPU 0 instructions: 90000003 cycles: 265702551 heartbeat IPC: 0.316435 cumulative IPC: 0.304 (Simulation time: 0 hr 18 min 54 sec) 
Heartbeat CPU 0 instructions: 100000001 cycles: 297172298 heartbeat IPC: 0.317765 cumulative IPC: 0.30547 (Simulation time: 0 hr 21 min 6 sec) 
Heartbeat CPU 0 instructions: 110000003 cycles: 329125369 heartbeat IPC: 0.312959 cumulative IPC: 0.306203 (Simulation time: 0 hr 23 min 17 sec) 
Finished CPU 0 instructions: 100000004 cycles: 326580610 cumulative IPC: 0.306203 (Simulation time: 0 hr 23 min 17 sec) 

ChampSim completed all CPUs

Region of Interest Statistics

CPU 0 cumulative IPC: 0.306203 instructions: 100000004 cycles: 326580610
cpu0_DTLB TOTAL     ACCESS:   13209563  HIT:   13161813  MISS:      47750
cpu0_DTLB LOAD      ACCESS:    6752335  HIT:    6740389  MISS:      11946
cpu0_DTLB RFO       ACCESS:    6457228  HIT:    6421424  MISS:      35804
cpu0_DTLB PREFETCH  ACCESS:          0  HIT:          0  MISS:          0
cpu0_DTLB WRITEBACK ACCESS:          0  HIT:          0  MISS:          0
cpu0_DTLB TRANSLATION ACCESS:          0  HIT:          0  MISS:          0
cpu0_DTLB PREFETCH  REQUESTED:          0  ISSUED:          0  USEFUL:          0  USELESS:          0
cpu0_DTLB AVERAGE MISS LATENCY: 235.376 cycles
cpu0_ITLB TOTAL     ACCESS:     123279  HIT:     123279  MISS:          0
cpu0_ITLB LOAD      ACCESS:     123279  HIT:     123279  MISS:          0
cpu0_ITLB RFO       ACCESS:          0  HIT:          0  MISS:          0
cpu0_ITLB PREFETCH  ACCESS:          0  HIT:          0  MISS:          0
cpu0_ITLB WRITEBACK ACCESS:          0  HIT:          0  MISS:          0
cpu0_ITLB TRANSLATION ACCESS:          0  HIT:          0  MISS:          0
cpu0_ITLB PREFETCH  REQUESTED:          0  ISSUED:          0  USEFUL:          0  USELESS:          0
cpu0_ITLB AVERAGE MISS LATENCY: -nan cycles
cpu0_STLB TOTAL     ACCESS:      47750  HIT:          0  MISS:      47750
cpu0_STLB LOAD      ACCESS:      11946  HIT:          0  MISS:      11946
cpu0_STLB RFO       ACCESS:      35804  HIT:          0  MISS:      35804
cpu0_STLB PREFETCH  ACCESS:          0  HIT:          0  MISS:          0
cpu0_STLB WRITEBACK ACCESS:          0  HIT:          0  MISS:          0
cpu0_STLB TRANSLATION ACCESS:          0  HIT:          0  MISS:          0
cpu0_STLB PREFETCH  REQUESTED:          0  ISSUED:          0  USEFUL:          0  USELESS:          0
cpu0_STLB AVERAGE MISS LATENCY: 226.376 cycles
cpu0_L1D TOTAL     ACCESS:   14655800  HIT:    9617274  MISS:    5038526
cpu0_L1D LOAD      ACCESS:    4302160  HIT:    3538685  MISS:     763475
cpu0_L1D RFO       ACCESS:   10305890  HIT:    6030884  MISS:    4275006
cpu0_L1D PREFETCH  ACCESS:          0  HIT:          0  MISS:          0
cpu0_L1D WRITEBACK ACCESS:          0  HIT:          0  MISS:          0
cpu0_L1D TRANSLATION ACCESS:      47750  HIT:      47705  MISS:         45
cpu0_L1D PREFETCH  REQUESTED:          0  ISSUED:          0  USEFUL:          0  USELESS:          0
cpu0_L1D AVERAGE MISS LATENCY: 414.764 cycles
cpu0_L2C TOTAL     ACCESS:    9313531  HIT:    6258411  MISS:    3055120
cpu0_L2C LOAD      ACCESS:     763475  HIT:          2  MISS:     763473
cpu0_L2C RFO       ACCESS:    4275006  HIT:    1983500  MISS:    2291506
cpu0_L2C PREFETCH  ACCESS:          0  HIT:          0  MISS:          0
cpu0_L2C WRITEBACK ACCESS:    4275005  HIT:    4274909  MISS:         96
cpu0_L2C TRANSLATION ACCESS:         45  HIT:          0  MISS:         45
cpu0_L2C PREFETCH  REQUESTED:          0  ISSUED:          0  USEFUL:          0  USELESS:          0
cpu0_L2C AVERAGE MISS LATENCY: 664.404 cycles
LLC TOTAL     ACCESS:    5346805  HIT:    1577217  MISS:    3769588
LLC LOAD      ACCESS:     763473  HIT:         44  MISS:     763429
LLC RFO       ACCESS:    2291506  HIT:     545083  MISS:    1746423
LLC PREFETCH  ACCESS:          0  HIT:          0  MISS:          0
LLC WRITEBACK ACCESS:    2291781  HIT:    1032082  MISS:    1259699
LLC TRANSLATION ACCESS:         45  HIT:          8  MISS:         37
LLC PREFETCH  REQUESTED:          0  ISSUED:          0  USEFUL:          0  USELESS:          0
LLC AVERAGE MISS LATENCY: 521.457 cycles

DRAM Statistics
 CHANNEL 0
 RQ ROW_BUFFER_HIT:      37941  ROW_BUFFER_MISS:    2471587
 DBUS AVG_CONGESTED_CYCLE:    3.99506
 WQ ROW_BUFFER_HIT:      20156  ROW_BUFFER_MISS:    1953856  FULL:        404


CPU 0 Branch Prediction Accuracy: 99.132% MPKI: 0.10209 Average ROB Occupancy at Mispredict: 173.654
Branch type MPKI
BRANCH_DIRECT_JUMP: 0
BRANCH_INDIRECT: 0
BRANCH_CONDITIONAL: 0.10209
BRANCH_DIRECT_CALL: 0
BRANCH_INDIRECT_CALL: 0
BRANCH_RETURN: 0

