
*** ChampSim Multicore Out-of-Order Simulator ***

Warmup Instructions: 10000000
Simulation Instructions: 100000000
Number of CPUs: 1
Off-chip DRAM Size: 4 GiB Channels: 1 Width: 64-bit Data Rate: 3200 MT/s

VirtualMemory physical capacity: 8588881920 num_ppages: 2096895
VirtualMemory page size: 4096 log2_page_size: 12

CPU 0 runs /datasets/cs240c-wi22-a00-public/data/Assignment2/libquantum_964B.trace.xz
CPU 0 Bimodal branch predictor
Basic BTB sets: 1024 ways: 8 indirect buffer size: 4096 RAS size: 64
Initialize Hawkeye state
Initialize SRRIP state
Heartbeat CPU 0 instructions: 10000001 cycles: 2500058 heartbeat IPC: 3.99991 cumulative IPC: 3.99991 (Simulation time: 0 hr 0 min 24 sec) 

Warmup complete CPU 0 instructions: 10000001 cycles: 2500058 (Simulation time: 0 hr 0 min 24 sec) 

Heartbeat CPU 0 instructions: 20000002 cycles: 18447958 heartbeat IPC: 0.627042 cumulative IPC: 0.627042 (Simulation time: 0 hr 1 min 22 sec) 
Heartbeat CPU 0 instructions: 30000004 cycles: 42900153 heartbeat IPC: 0.408961 cumulative IPC: 0.495048 (Simulation time: 0 hr 3 min 25 sec) 
Heartbeat CPU 0 instructions: 40000001 cycles: 64797095 heartbeat IPC: 0.456685 cumulative IPC: 0.481564 (Simulation time: 0 hr 5 min 38 sec) 
Heartbeat CPU 0 instructions: 50000003 cycles: 69807709 heartbeat IPC: 1.99576 cumulative IPC: 0.594286 (Simulation time: 0 hr 6 min 26 sec) 
Heartbeat CPU 0 instructions: 60000004 cycles: 80436416 heartbeat IPC: 0.940848 cumulative IPC: 0.641549 (Simulation time: 0 hr 7 min 20 sec) 
Heartbeat CPU 0 instructions: 70000003 cycles: 95832857 heartbeat IPC: 0.649501 cumulative IPC: 0.642861 (Simulation time: 0 hr 8 min 17 sec) 
Heartbeat CPU 0 instructions: 80000002 cycles: 123102514 heartbeat IPC: 0.366708 cumulative IPC: 0.580419 (Simulation time: 0 hr 10 min 39 sec) 
Heartbeat CPU 0 instructions: 90000001 cycles: 141161376 heartbeat IPC: 0.553745 cumulative IPC: 0.576945 (Simulation time: 0 hr 12 min 33 sec) 
Heartbeat CPU 0 instructions: 100000001 cycles: 146069258 heartbeat IPC: 2.03754 cumulative IPC: 0.626875 (Simulation time: 0 hr 13 min 21 sec) 
Heartbeat CPU 0 instructions: 110000003 cycles: 171378608 heartbeat IPC: 0.395111 cumulative IPC: 0.592142 (Simulation time: 0 hr 15 min 52 sec) 
Finished CPU 0 instructions: 100000002 cycles: 168878550 cumulative IPC: 0.592142 (Simulation time: 0 hr 15 min 52 sec) 

ChampSim completed all CPUs

Region of Interest Statistics

CPU 0 cumulative IPC: 0.592142 instructions: 100000002 cycles: 168878550
cpu0_DTLB TOTAL     ACCESS:    9105991  HIT:    9052993  MISS:      52998
cpu0_DTLB LOAD      ACCESS:    6230329  HIT:    6199138  MISS:      31191
cpu0_DTLB RFO       ACCESS:    2875662  HIT:    2853855  MISS:      21807
cpu0_DTLB PREFETCH  ACCESS:          0  HIT:          0  MISS:          0
cpu0_DTLB WRITEBACK ACCESS:          0  HIT:          0  MISS:          0
cpu0_DTLB TRANSLATION ACCESS:          0  HIT:          0  MISS:          0
cpu0_DTLB PREFETCH  REQUESTED:          0  ISSUED:          0  USEFUL:          0  USELESS:          0
cpu0_DTLB AVERAGE MISS LATENCY: 38.5761 cycles
cpu0_ITLB TOTAL     ACCESS:    1925165  HIT:    1925164  MISS:          1
cpu0_ITLB LOAD      ACCESS:    1925165  HIT:    1925164  MISS:          1
cpu0_ITLB RFO       ACCESS:          0  HIT:          0  MISS:          0
cpu0_ITLB PREFETCH  ACCESS:          0  HIT:          0  MISS:          0
cpu0_ITLB WRITEBACK ACCESS:          0  HIT:          0  MISS:          0
cpu0_ITLB TRANSLATION ACCESS:          0  HIT:          0  MISS:          0
cpu0_ITLB PREFETCH  REQUESTED:          0  ISSUED:          0  USEFUL:          0  USELESS:          0
cpu0_ITLB AVERAGE MISS LATENCY: 217 cycles
cpu0_L1I TOTAL     ACCESS:         11  HIT:          7  MISS:          4
cpu0_L1I LOAD      ACCESS:         11  HIT:          7  MISS:          4
cpu0_L1I RFO       ACCESS:          0  HIT:          0  MISS:          0
cpu0_L1I PREFETCH  ACCESS:          0  HIT:          0  MISS:          0
cpu0_L1I WRITEBACK ACCESS:          0  HIT:          0  MISS:          0
cpu0_L1I TRANSLATION ACCESS:          0  HIT:          0  MISS:          0
cpu0_L1I PREFETCH  REQUESTED:          0  ISSUED:          0  USEFUL:          0  USELESS:          0
cpu0_L1I AVERAGE MISS LATENCY: 261.25 cycles
cpu0_STLB TOTAL     ACCESS:      52999  HIT:          0  MISS:      52999
cpu0_STLB LOAD      ACCESS:      31192  HIT:          0  MISS:      31192
cpu0_STLB RFO       ACCESS:      21807  HIT:          0  MISS:      21807
cpu0_STLB PREFETCH  ACCESS:          0  HIT:          0  MISS:          0
cpu0_STLB WRITEBACK ACCESS:          0  HIT:          0  MISS:          0
cpu0_STLB TRANSLATION ACCESS:          0  HIT:          0  MISS:          0
cpu0_STLB PREFETCH  REQUESTED:          0  ISSUED:          0  USEFUL:          0  USELESS:          0
cpu0_STLB AVERAGE MISS LATENCY: 29.5795 cycles
cpu0_L1D TOTAL     ACCESS:    9384391  HIT:    5993950  MISS:    3390441
cpu0_L1D LOAD      ACCESS:    3615662  HIT:     225282  MISS:    3390380
cpu0_L1D RFO       ACCESS:    5715730  HIT:    5715706  MISS:         24
cpu0_L1D PREFETCH  ACCESS:          0  HIT:          0  MISS:          0
cpu0_L1D WRITEBACK ACCESS:          0  HIT:          0  MISS:          0
cpu0_L1D TRANSLATION ACCESS:      52999  HIT:      52962  MISS:         37
cpu0_L1D PREFETCH  REQUESTED:          0  ISSUED:          0  USEFUL:          0  USELESS:          0
cpu0_L1D AVERAGE MISS LATENCY: 427.485 cycles
cpu0_L2C TOTAL     ACCESS:    4919980  HIT:    1529535  MISS:    3390445
cpu0_L2C LOAD      ACCESS:    3390384  HIT:          0  MISS:    3390384
cpu0_L2C RFO       ACCESS:         24  HIT:          0  MISS:         24
cpu0_L2C PREFETCH  ACCESS:          0  HIT:          0  MISS:          0
cpu0_L2C WRITEBACK ACCESS:    1529535  HIT:    1529535  MISS:          0
cpu0_L2C TRANSLATION ACCESS:         37  HIT:          0  MISS:         37
cpu0_L2C PREFETCH  REQUESTED:          0  ISSUED:          0  USEFUL:          0  USELESS:          0
cpu0_L2C AVERAGE MISS LATENCY: 416.483 cycles
LLC TOTAL     ACCESS:    4913669  HIT:     242518  MISS:    4671151
LLC LOAD      ACCESS:    3390384  HIT:     145004  MISS:    3245380
LLC RFO       ACCESS:         24  HIT:         17  MISS:          7
LLC PREFETCH  ACCESS:          0  HIT:          0  MISS:          0
LLC WRITEBACK ACCESS:    1523224  HIT:      97486  MISS:    1425738
LLC TRANSLATION ACCESS:         37  HIT:         11  MISS:         26
LLC PREFETCH  REQUESTED:          0  ISSUED:          0  USEFUL:          0  USELESS:          0
LLC AVERAGE MISS LATENCY: 287.04 cycles

DRAM Statistics
 CHANNEL 0
 RQ ROW_BUFFER_HIT:    1779574  ROW_BUFFER_MISS:    1465831
 DBUS AVG_CONGESTED_CYCLE:    3.89792
 WQ ROW_BUFFER_HIT:     250116  ROW_BUFFER_MISS:    1213491  FULL:     179226


CPU 0 Branch Prediction Accuracy: 98.7463% MPKI: 2.70066 Average ROB Occupancy at Mispredict: 44.7796
Branch type MPKI
BRANCH_DIRECT_JUMP: 1e-05
BRANCH_INDIRECT: 0
BRANCH_CONDITIONAL: 2.70053
BRANCH_DIRECT_CALL: 6e-05
BRANCH_INDIRECT_CALL: 0
BRANCH_RETURN: 6e-05

