
*** ChampSim Multicore Out-of-Order Simulator ***

Warmup Instructions: 10000000
Simulation Instructions: 100000000
Number of CPUs: 1
Off-chip DRAM Size: 4 GiB Channels: 1 Width: 64-bit Data Rate: 3200 MT/s

VirtualMemory physical capacity: 8588881920 num_ppages: 2096895
VirtualMemory page size: 4096 log2_page_size: 12

CPU 0 runs /datasets/cs240c-wi22-a00-public/data/Assignment2/sphinx3_2520B.trace.xz
CPU 0 Bimodal branch predictor
Basic BTB sets: 1024 ways: 8 indirect buffer size: 4096 RAS size: 64
Initialize Hawkeye state
Initialize SRRIP state
Heartbeat CPU 0 instructions: 10000000 cycles: 2589704 heartbeat IPC: 3.86145 cumulative IPC: 3.86145 (Simulation time: 0 hr 0 min 25 sec) 

Warmup complete CPU 0 instructions: 10000004 cycles: 2589705 (Simulation time: 0 hr 0 min 25 sec) 

Heartbeat CPU 0 instructions: 20000002 cycles: 8793881 heartbeat IPC: 1.61182 cumulative IPC: 1.61182 (Simulation time: 0 hr 1 min 5 sec) 
Heartbeat CPU 0 instructions: 30000000 cycles: 14978312 heartbeat IPC: 1.61696 cumulative IPC: 1.61439 (Simulation time: 0 hr 1 min 45 sec) 
Heartbeat CPU 0 instructions: 40000002 cycles: 20841794 heartbeat IPC: 1.70547 cumulative IPC: 1.64365 (Simulation time: 0 hr 2 min 23 sec) 
Heartbeat CPU 0 instructions: 50000004 cycles: 27027941 heartbeat IPC: 1.61652 cumulative IPC: 1.63678 (Simulation time: 0 hr 3 min 3 sec) 
Heartbeat CPU 0 instructions: 60000001 cycles: 32932767 heartbeat IPC: 1.69353 cumulative IPC: 1.64782 (Simulation time: 0 hr 3 min 42 sec) 
Heartbeat CPU 0 instructions: 70000004 cycles: 38641316 heartbeat IPC: 1.75176 cumulative IPC: 1.66428 (Simulation time: 0 hr 4 min 22 sec) 
Heartbeat CPU 0 instructions: 80000000 cycles: 44469865 heartbeat IPC: 1.71569 cumulative IPC: 1.67144 (Simulation time: 0 hr 5 min 2 sec) 
Heartbeat CPU 0 instructions: 90000003 cycles: 50197105 heartbeat IPC: 1.74604 cumulative IPC: 1.68041 (Simulation time: 0 hr 5 min 42 sec) 
Heartbeat CPU 0 instructions: 100000002 cycles: 56163212 heartbeat IPC: 1.67613 cumulative IPC: 1.67993 (Simulation time: 0 hr 6 min 22 sec) 
Heartbeat CPU 0 instructions: 110000004 cycles: 65033977 heartbeat IPC: 1.1273 cumulative IPC: 1.60143 (Simulation time: 0 hr 7 min 12 sec) 
Finished CPU 0 instructions: 100000000 cycles: 62444272 cumulative IPC: 1.60143 (Simulation time: 0 hr 7 min 12 sec) 

ChampSim completed all CPUs

Region of Interest Statistics

CPU 0 cumulative IPC: 1.60143 instructions: 100000000 cycles: 62444272
cpu0_DTLB TOTAL     ACCESS:   16047584  HIT:   15991725  MISS:      55859
cpu0_DTLB LOAD      ACCESS:   15009096  HIT:   14956578  MISS:      52518
cpu0_DTLB RFO       ACCESS:    1038488  HIT:    1035147  MISS:       3341
cpu0_DTLB PREFETCH  ACCESS:          0  HIT:          0  MISS:          0
cpu0_DTLB WRITEBACK ACCESS:          0  HIT:          0  MISS:          0
cpu0_DTLB TRANSLATION ACCESS:          0  HIT:          0  MISS:          0
cpu0_DTLB PREFETCH  REQUESTED:          0  ISSUED:          0  USEFUL:          0  USELESS:          0
cpu0_DTLB AVERAGE MISS LATENCY: 11.3997 cycles
cpu0_ITLB TOTAL     ACCESS:    9565405  HIT:    9565363  MISS:         42
cpu0_ITLB LOAD      ACCESS:    9565405  HIT:    9565363  MISS:         42
cpu0_ITLB RFO       ACCESS:          0  HIT:          0  MISS:          0
cpu0_ITLB PREFETCH  ACCESS:          0  HIT:          0  MISS:          0
cpu0_ITLB WRITEBACK ACCESS:          0  HIT:          0  MISS:          0
cpu0_ITLB TRANSLATION ACCESS:          0  HIT:          0  MISS:          0
cpu0_ITLB PREFETCH  REQUESTED:          0  ISSUED:          0  USEFUL:          0  USELESS:          0
cpu0_ITLB AVERAGE MISS LATENCY: 151.476 cycles
cpu0_L1I TOTAL     ACCESS:     267883  HIT:     266587  MISS:       1296
cpu0_L1I LOAD      ACCESS:     267883  HIT:     266587  MISS:       1296
cpu0_L1I RFO       ACCESS:          0  HIT:          0  MISS:          0
cpu0_L1I PREFETCH  ACCESS:          0  HIT:          0  MISS:          0
cpu0_L1I WRITEBACK ACCESS:          0  HIT:          0  MISS:          0
cpu0_L1I TRANSLATION ACCESS:          0  HIT:          0  MISS:          0
cpu0_L1I PREFETCH  REQUESTED:          0  ISSUED:          0  USEFUL:          0  USELESS:          0
cpu0_L1I AVERAGE MISS LATENCY: 151.375 cycles
cpu0_STLB TOTAL     ACCESS:      55901  HIT:      51094  MISS:       4807
cpu0_STLB LOAD      ACCESS:      52560  HIT:      47885  MISS:       4675
cpu0_STLB RFO       ACCESS:       3341  HIT:       3209  MISS:        132
cpu0_STLB PREFETCH  ACCESS:          0  HIT:          0  MISS:          0
cpu0_STLB WRITEBACK ACCESS:          0  HIT:          0  MISS:          0
cpu0_STLB TRANSLATION ACCESS:          0  HIT:          0  MISS:          0
cpu0_STLB PREFETCH  REQUESTED:          0  ISSUED:          0  USEFUL:          0  USELESS:          0
cpu0_STLB AVERAGE MISS LATENCY: 28.6145 cycles
cpu0_L1D TOTAL     ACCESS:   11604795  HIT:   10265403  MISS:    1339392
cpu0_L1D LOAD      ACCESS:   10246570  HIT:    9032827  MISS:    1213743
cpu0_L1D RFO       ACCESS:    1353690  HIT:    1228155  MISS:     125535
cpu0_L1D PREFETCH  ACCESS:          0  HIT:          0  MISS:          0
cpu0_L1D WRITEBACK ACCESS:          0  HIT:          0  MISS:          0
cpu0_L1D TRANSLATION ACCESS:       4535  HIT:       4421  MISS:        114
cpu0_L1D PREFETCH  REQUESTED:          0  ISSUED:          0  USEFUL:          0  USELESS:          0
cpu0_L1D AVERAGE MISS LATENCY: 75.4591 cycles
cpu0_L2C TOTAL     ACCESS:    1472897  HIT:     251116  MISS:    1221781
cpu0_L2C LOAD      ACCESS:    1215038  HIT:     113613  MISS:    1101425
cpu0_L2C RFO       ACCESS:     125535  HIT:       5426  MISS:     120109
cpu0_L2C PREFETCH  ACCESS:          0  HIT:          0  MISS:          0
cpu0_L2C WRITEBACK ACCESS:     132210  HIT:     132048  MISS:        162
cpu0_L2C TRANSLATION ACCESS:        114  HIT:         29  MISS:         85
cpu0_L2C PREFETCH  REQUESTED:          0  ISSUED:          0  USEFUL:          0  USELESS:          0
cpu0_L2C AVERAGE MISS LATENCY: 70.792 cycles
LLC TOTAL     ACCESS:    1348270  HIT:     991619  MISS:     356651
LLC LOAD      ACCESS:    1101425  HIT:     762178  MISS:     339247
LLC RFO       ACCESS:     120109  HIT:     107732  MISS:      12377
LLC PREFETCH  ACCESS:          0  HIT:          0  MISS:          0
LLC WRITEBACK ACCESS:     126651  HIT:     121676  MISS:       4975
LLC TRANSLATION ACCESS:         85  HIT:         33  MISS:         52
LLC PREFETCH  REQUESTED:          0  ISSUED:          0  USEFUL:          0  USELESS:          0
LLC AVERAGE MISS LATENCY: 170.575 cycles

DRAM Statistics
 CHANNEL 0
 RQ ROW_BUFFER_HIT:      78976  ROW_BUFFER_MISS:     272031
 DBUS AVG_CONGESTED_CYCLE:    3.86134
 WQ ROW_BUFFER_HIT:       6234  ROW_BUFFER_MISS:       9052  FULL:          0


CPU 0 Branch Prediction Accuracy: 93.1904% MPKI: 5.9173 Average ROB Occupancy at Mispredict: 191.721
Branch type MPKI
BRANCH_DIRECT_JUMP: 0.00106
BRANCH_INDIRECT: 0
BRANCH_CONDITIONAL: 5.91482
BRANCH_DIRECT_CALL: 0.00069
BRANCH_INDIRECT_CALL: 3e-05
BRANCH_RETURN: 0.0007

