
*** ChampSim Multicore Out-of-Order Simulator ***

Warmup Instructions: 10000000
Simulation Instructions: 100000000
Number of CPUs: 1
Off-chip DRAM Size: 4 GiB Channels: 1 Width: 64-bit Data Rate: 3200 MT/s

VirtualMemory physical capacity: 8588881920 num_ppages: 2096895
VirtualMemory page size: 4096 log2_page_size: 12

CPU 0 runs /datasets/cs240c-wi22-a00-public/data/Assignment2/zeusmp_300B.trace.xz
CPU 0 Bimodal branch predictor
Basic BTB sets: 1024 ways: 8 indirect buffer size: 4096 RAS size: 64
Initialize Hawkeye state
Initialize SRRIP state
Heartbeat CPU 0 instructions: 10000000 cycles: 2814860 heartbeat IPC: 3.55257 cumulative IPC: 3.55257 (Simulation time: 0 hr 0 min 28 sec) 

Warmup complete CPU 0 instructions: 10000002 cycles: 2814863 (Simulation time: 0 hr 0 min 28 sec) 

Heartbeat CPU 0 instructions: 20000004 cycles: 8467758 heartbeat IPC: 1.769 cumulative IPC: 1.76901 (Simulation time: 0 hr 1 min 11 sec) 
Heartbeat CPU 0 instructions: 30000004 cycles: 14088864 heartbeat IPC: 1.77901 cumulative IPC: 1.77399 (Simulation time: 0 hr 1 min 53 sec) 
Heartbeat CPU 0 instructions: 40000003 cycles: 19686454 heartbeat IPC: 1.78648 cumulative IPC: 1.77814 (Simulation time: 0 hr 2 min 34 sec) 
Heartbeat CPU 0 instructions: 50000004 cycles: 25341111 heartbeat IPC: 1.76845 cumulative IPC: 1.77571 (Simulation time: 0 hr 3 min 26 sec) 
Heartbeat CPU 0 instructions: 60000001 cycles: 30969055 heartbeat IPC: 1.77685 cumulative IPC: 1.77593 (Simulation time: 0 hr 4 min 44 sec) 
Heartbeat CPU 0 instructions: 70000000 cycles: 36563568 heartbeat IPC: 1.78747 cumulative IPC: 1.77785 (Simulation time: 0 hr 6 min 1 sec) 
Heartbeat CPU 0 instructions: 80000000 cycles: 42243688 heartbeat IPC: 1.76053 cumulative IPC: 1.77535 (Simulation time: 0 hr 7 min 22 sec) 
Heartbeat CPU 0 instructions: 90000003 cycles: 47991764 heartbeat IPC: 1.73971 cumulative IPC: 1.77082 (Simulation time: 0 hr 8 min 43 sec) 
Heartbeat CPU 0 instructions: 100000000 cycles: 53643568 heartbeat IPC: 1.76935 cumulative IPC: 1.77065 (Simulation time: 0 hr 9 min 59 sec) 
Heartbeat CPU 0 instructions: 110000000 cycles: 59228883 heartbeat IPC: 1.79041 cumulative IPC: 1.77261 (Simulation time: 0 hr 11 min 6 sec) 
Finished CPU 0 instructions: 100000003 cycles: 56414021 cumulative IPC: 1.77261 (Simulation time: 0 hr 11 min 6 sec) 

ChampSim completed all CPUs

Region of Interest Statistics

CPU 0 cumulative IPC: 1.77261 instructions: 100000003 cycles: 56414021
cpu0_DTLB TOTAL     ACCESS:   16099698  HIT:   15016631  MISS:    1083067
cpu0_DTLB LOAD      ACCESS:   10873580  HIT:    9808266  MISS:    1065314
cpu0_DTLB RFO       ACCESS:    5226118  HIT:    5208365  MISS:      17753
cpu0_DTLB PREFETCH  ACCESS:          0  HIT:          0  MISS:          0
cpu0_DTLB WRITEBACK ACCESS:          0  HIT:          0  MISS:          0
cpu0_DTLB TRANSLATION ACCESS:          0  HIT:          0  MISS:          0
cpu0_DTLB PREFETCH  REQUESTED:          0  ISSUED:          0  USEFUL:          0  USELESS:          0
cpu0_DTLB AVERAGE MISS LATENCY: 10.4692 cycles
cpu0_ITLB TOTAL     ACCESS:    1805715  HIT:    1805715  MISS:          0
cpu0_ITLB LOAD      ACCESS:    1805715  HIT:    1805715  MISS:          0
cpu0_ITLB RFO       ACCESS:          0  HIT:          0  MISS:          0
cpu0_ITLB PREFETCH  ACCESS:          0  HIT:          0  MISS:          0
cpu0_ITLB WRITEBACK ACCESS:          0  HIT:          0  MISS:          0
cpu0_ITLB TRANSLATION ACCESS:          0  HIT:          0  MISS:          0
cpu0_ITLB PREFETCH  REQUESTED:          0  ISSUED:          0  USEFUL:          0  USELESS:          0
cpu0_ITLB AVERAGE MISS LATENCY: -nan cycles
cpu0_L1I TOTAL     ACCESS:    2749977  HIT:    2749977  MISS:          0
cpu0_L1I LOAD      ACCESS:    2749977  HIT:    2749977  MISS:          0
cpu0_L1I RFO       ACCESS:          0  HIT:          0  MISS:          0
cpu0_L1I PREFETCH  ACCESS:          0  HIT:          0  MISS:          0
cpu0_L1I WRITEBACK ACCESS:          0  HIT:          0  MISS:          0
cpu0_L1I TRANSLATION ACCESS:          0  HIT:          0  MISS:          0
cpu0_L1I PREFETCH  REQUESTED:          0  ISSUED:          0  USEFUL:          0  USELESS:          0
cpu0_L1I AVERAGE MISS LATENCY: -nan cycles
cpu0_STLB TOTAL     ACCESS:    1083067  HIT:    1076116  MISS:       6951
cpu0_STLB LOAD      ACCESS:    1065314  HIT:    1060416  MISS:       4898
cpu0_STLB RFO       ACCESS:      17753  HIT:      15700  MISS:       2053
cpu0_STLB PREFETCH  ACCESS:          0  HIT:          0  MISS:          0
cpu0_STLB WRITEBACK ACCESS:          0  HIT:          0  MISS:          0
cpu0_STLB TRANSLATION ACCESS:          0  HIT:          0  MISS:          0
cpu0_STLB PREFETCH  REQUESTED:          0  ISSUED:          0  USEFUL:          0  USELESS:          0
cpu0_STLB AVERAGE MISS LATENCY: 204.085 cycles
cpu0_L1D TOTAL     ACCESS:   18596427  HIT:   17935629  MISS:     660798
cpu0_L1D LOAD      ACCESS:   10915393  HIT:   10434650  MISS:     480743
cpu0_L1D RFO       ACCESS:    7674401  HIT:    7498982  MISS:     175419
cpu0_L1D PREFETCH  ACCESS:          0  HIT:          0  MISS:          0
cpu0_L1D WRITEBACK ACCESS:          0  HIT:          0  MISS:          0
cpu0_L1D TRANSLATION ACCESS:       6633  HIT:       1997  MISS:       4636
cpu0_L1D PREFETCH  REQUESTED:          0  ISSUED:          0  USEFUL:          0  USELESS:          0
cpu0_L1D AVERAGE MISS LATENCY: 137.962 cycles
cpu0_L2C TOTAL     ACCESS:     838871  HIT:     409941  MISS:     428930
cpu0_L2C LOAD      ACCESS:     480713  HIT:     197408  MISS:     283305
cpu0_L2C RFO       ACCESS:     175373  HIT:      34911  MISS:     140462
cpu0_L2C PREFETCH  ACCESS:          0  HIT:          0  MISS:          0
cpu0_L2C WRITEBACK ACCESS:     178149  HIT:     173220  MISS:       4929
cpu0_L2C TRANSLATION ACCESS:       4636  HIT:       4402  MISS:        234
cpu0_L2C PREFETCH  REQUESTED:          0  ISSUED:          0  USEFUL:          0  USELESS:          0
cpu0_L2C AVERAGE MISS LATENCY: 195.579 cycles
LLC TOTAL     ACCESS:     580550  HIT:     239544  MISS:     341006
LLC LOAD      ACCESS:     283305  HIT:      91074  MISS:     192231
LLC RFO       ACCESS:     140462  HIT:      63100  MISS:      77362
LLC PREFETCH  ACCESS:          0  HIT:          0  MISS:          0
LLC WRITEBACK ACCESS:     156549  HIT:      85239  MISS:      71310
LLC TRANSLATION ACCESS:        234  HIT:        131  MISS:        103
LLC PREFETCH  REQUESTED:          0  ISSUED:          0  USEFUL:          0  USELESS:          0
LLC AVERAGE MISS LATENCY: 219.895 cycles

DRAM Statistics
 CHANNEL 0
 RQ ROW_BUFFER_HIT:      18785  ROW_BUFFER_MISS:     250906
 DBUS AVG_CONGESTED_CYCLE:    3.99635
 WQ ROW_BUFFER_HIT:       6150  ROW_BUFFER_MISS:      78524  FULL:          0


CPU 0 Branch Prediction Accuracy: 98.8423% MPKI: 0.45019 Average ROB Occupancy at Mispredict: 205.382
Branch type MPKI
BRANCH_DIRECT_JUMP: 0
BRANCH_INDIRECT: 0
BRANCH_CONDITIONAL: 0.45019
BRANCH_DIRECT_CALL: 0
BRANCH_INDIRECT_CALL: 0
BRANCH_RETURN: 0

