
*** ChampSim Multicore Out-of-Order Simulator ***

Warmup Instructions: 10000000
Simulation Instructions: 100000000
Number of CPUs: 1
Off-chip DRAM Size: 4 GiB Channels: 1 Width: 64-bit Data Rate: 3200 MT/s

VirtualMemory physical capacity: 8588881920 num_ppages: 2096895
VirtualMemory page size: 4096 log2_page_size: 12

CPU 0 runs /datasets/cs240c-wi22-a00-public/data/Assignment2/bzip2_281B.trace.xz
CPU 0 Bimodal branch predictor
Basic BTB sets: 1024 ways: 8 indirect buffer size: 4096 RAS size: 64
5th iteration
No hysteresis, common rrpv
Initialize Hawkeye state
Initialize SRRIP state
Heartbeat CPU 0 instructions: 10000004 cycles: 3227486 heartbeat IPC: 3.09839 cumulative IPC: 3.09839 (Simulation time: 0 hr 0 min 28 sec) 

Warmup complete CPU 0 instructions: 10000004 cycles: 3227486 (Simulation time: 0 hr 0 min 28 sec) 

Heartbeat CPU 0 instructions: 20000000 cycles: 13836059 heartbeat IPC: 0.942633 cumulative IPC: 0.942633 (Simulation time: 0 hr 1 min 2 sec) 
Heartbeat CPU 0 instructions: 30000001 cycles: 26000162 heartbeat IPC: 0.822091 cumulative IPC: 0.878245 (Simulation time: 0 hr 1 min 51 sec) 
Heartbeat CPU 0 instructions: 40000002 cycles: 30667110 heartbeat IPC: 2.14273 cumulative IPC: 1.09331 (Simulation time: 0 hr 2 min 13 sec) 
Heartbeat CPU 0 instructions: 50000002 cycles: 35815759 heartbeat IPC: 1.94226 cumulative IPC: 1.22744 (Simulation time: 0 hr 2 min 36 sec) 
Heartbeat CPU 0 instructions: 60000000 cycles: 40991216 heartbeat IPC: 1.9322 cumulative IPC: 1.32402 (Simulation time: 0 hr 3 min 3 sec) 
Heartbeat CPU 0 instructions: 70000004 cycles: 48515491 heartbeat IPC: 1.32903 cumulative IPC: 1.32485 (Simulation time: 0 hr 3 min 44 sec) 
Heartbeat CPU 0 instructions: 80000003 cycles: 56129143 heartbeat IPC: 1.31343 cumulative IPC: 1.32321 (Simulation time: 0 hr 4 min 18 sec) 
Heartbeat CPU 0 instructions: 90000003 cycles: 62532278 heartbeat IPC: 1.56174 cumulative IPC: 1.34896 (Simulation time: 0 hr 4 min 43 sec) 
Heartbeat CPU 0 instructions: 100000001 cycles: 69160894 heartbeat IPC: 1.50861 cumulative IPC: 1.36501 (Simulation time: 0 hr 5 min 10 sec) 
Heartbeat CPU 0 instructions: 110000000 cycles: 75897719 heartbeat IPC: 1.48438 cumulative IPC: 1.37608 (Simulation time: 0 hr 5 min 36 sec) 
Finished CPU 0 instructions: 100000000 cycles: 72670235 cumulative IPC: 1.37608 (Simulation time: 0 hr 5 min 36 sec) 

ChampSim completed all CPUs

Region of Interest Statistics

CPU 0 cumulative IPC: 1.37608 instructions: 100000000 cycles: 72670235
cpu0_DTLB TOTAL     ACCESS:   19648799  HIT:   18890133  MISS:     758666
cpu0_DTLB LOAD      ACCESS:   13795105  HIT:   13149409  MISS:     645696
cpu0_DTLB RFO       ACCESS:    5853694  HIT:    5740724  MISS:     112970
cpu0_DTLB PREFETCH  ACCESS:          0  HIT:          0  MISS:          0
cpu0_DTLB WRITEBACK ACCESS:          0  HIT:          0  MISS:          0
cpu0_DTLB TRANSLATION ACCESS:          0  HIT:          0  MISS:          0
cpu0_DTLB PREFETCH  REQUESTED:          0  ISSUED:          0  USEFUL:          0  USELESS:          0
cpu0_DTLB AVERAGE MISS LATENCY: 9.33376 cycles
cpu0_ITLB TOTAL     ACCESS:    6407132  HIT:    6407118  MISS:         14
cpu0_ITLB LOAD      ACCESS:    6407132  HIT:    6407118  MISS:         14
cpu0_ITLB RFO       ACCESS:          0  HIT:          0  MISS:          0
cpu0_ITLB PREFETCH  ACCESS:          0  HIT:          0  MISS:          0
cpu0_ITLB WRITEBACK ACCESS:          0  HIT:          0  MISS:          0
cpu0_ITLB TRANSLATION ACCESS:          0  HIT:          0  MISS:          0
cpu0_ITLB PREFETCH  REQUESTED:          0  ISSUED:          0  USEFUL:          0  USELESS:          0
cpu0_ITLB AVERAGE MISS LATENCY: 222.429 cycles
cpu0_L1I TOTAL     ACCESS:    2685729  HIT:    2685375  MISS:        354
cpu0_L1I LOAD      ACCESS:    2685729  HIT:    2685375  MISS:        354
cpu0_L1I RFO       ACCESS:          0  HIT:          0  MISS:          0
cpu0_L1I PREFETCH  ACCESS:          0  HIT:          0  MISS:          0
cpu0_L1I WRITEBACK ACCESS:          0  HIT:          0  MISS:          0
cpu0_L1I TRANSLATION ACCESS:          0  HIT:          0  MISS:          0
cpu0_L1I PREFETCH  REQUESTED:          0  ISSUED:          0  USEFUL:          0  USELESS:          0
cpu0_L1I AVERAGE MISS LATENCY: 157.288 cycles
cpu0_STLB TOTAL     ACCESS:     758680  HIT:     757598  MISS:       1082
cpu0_STLB LOAD      ACCESS:     645710  HIT:     644803  MISS:        907
cpu0_STLB RFO       ACCESS:     112970  HIT:     112795  MISS:        175
cpu0_STLB PREFETCH  ACCESS:          0  HIT:          0  MISS:          0
cpu0_STLB WRITEBACK ACCESS:          0  HIT:          0  MISS:          0
cpu0_STLB TRANSLATION ACCESS:          0  HIT:          0  MISS:          0
cpu0_STLB PREFETCH  REQUESTED:          0  ISSUED:          0  USEFUL:          0  USELESS:          0
cpu0_STLB AVERAGE MISS LATENCY: 205.528 cycles
cpu0_L1D TOTAL     ACCESS:   23564136  HIT:   21964814  MISS:    1599322
cpu0_L1D LOAD      ACCESS:   13793000  HIT:   12400022  MISS:    1392978
cpu0_L1D RFO       ACCESS:    9770068  HIT:    9564229  MISS:     205839
cpu0_L1D PREFETCH  ACCESS:          0  HIT:          0  MISS:          0
cpu0_L1D WRITEBACK ACCESS:          0  HIT:          0  MISS:          0
cpu0_L1D TRANSLATION ACCESS:       1068  HIT:        563  MISS:        505
cpu0_L1D PREFETCH  REQUESTED:          0  ISSUED:          0  USEFUL:          0  USELESS:          0
cpu0_L1D AVERAGE MISS LATENCY: 89.0707 cycles
cpu0_L2C TOTAL     ACCESS:    1813994  HIT:     911814  MISS:     902180
cpu0_L2C LOAD      ACCESS:    1393328  HIT:     648941  MISS:     744387
cpu0_L2C RFO       ACCESS:     205828  HIT:      48319  MISS:     157509
cpu0_L2C PREFETCH  ACCESS:          0  HIT:          0  MISS:          0
cpu0_L2C WRITEBACK ACCESS:     214333  HIT:     214079  MISS:        254
cpu0_L2C TRANSLATION ACCESS:        505  HIT:        475  MISS:         30
cpu0_L2C PREFETCH  REQUESTED:          0  ISSUED:          0  USEFUL:          0  USELESS:          0
cpu0_L2C AVERAGE MISS LATENCY: 138.317 cycles
LLC TOTAL     ACCESS:    1060491  HIT:     828088  MISS:     232403
LLC LOAD      ACCESS:     744386  HIT:     604409  MISS:     139977
LLC RFO       ACCESS:     157494  HIT:      85348  MISS:      72146
LLC PREFETCH  ACCESS:          0  HIT:          0  MISS:          0
LLC WRITEBACK ACCESS:     158581  HIT:     138315  MISS:      20266
LLC TRANSLATION ACCESS:         30  HIT:         16  MISS:         14
LLC PREFETCH  REQUESTED:          0  ISSUED:          0  USEFUL:          0  USELESS:          0
LLC AVERAGE MISS LATENCY: 455.433 cycles

DRAM Statistics
 CHANNEL 0
 RQ ROW_BUFFER_HIT:      57624  ROW_BUFFER_MISS:     154203
 DBUS AVG_CONGESTED_CYCLE:    3.98313
 WQ ROW_BUFFER_HIT:       6430  ROW_BUFFER_MISS:      88398  FULL:          0


CPU 0 Branch Prediction Accuracy: 91.2056% MPKI: 12.1715 Average ROB Occupancy at Mispredict: 71.7525
Branch type MPKI
BRANCH_DIRECT_JUMP: 0.00059
BRANCH_INDIRECT: 0
BRANCH_CONDITIONAL: 12.1706
BRANCH_DIRECT_CALL: 0.00014
BRANCH_INDIRECT_CALL: 0
BRANCH_RETURN: 0.00019

