
*** ChampSim Multicore Out-of-Order Simulator ***

Warmup Instructions: 10000000
Simulation Instructions: 100000000
Number of CPUs: 1
Off-chip DRAM Size: 4 GiB Channels: 1 Width: 64-bit Data Rate: 3200 MT/s

VirtualMemory physical capacity: 8588881920 num_ppages: 2096895
VirtualMemory page size: 4096 log2_page_size: 12

CPU 0 runs /datasets/cs240c-wi22-a00-public/data/Assignment2/bzip2_259B.trace.xz
CPU 0 Bimodal branch predictor
Basic BTB sets: 1024 ways: 8 indirect buffer size: 4096 RAS size: 64
5th iteration
No hysteresis, common rrpv
Initialize Hawkeye state
Initialize SRRIP state
Heartbeat CPU 0 instructions: 10000002 cycles: 2535454 heartbeat IPC: 3.94407 cumulative IPC: 3.94407 (Simulation time: 0 hr 0 min 17 sec) 

Warmup complete CPU 0 instructions: 10000002 cycles: 2535454 (Simulation time: 0 hr 0 min 17 sec) 

Heartbeat CPU 0 instructions: 20000003 cycles: 8971281 heartbeat IPC: 1.5538 cumulative IPC: 1.5538 (Simulation time: 0 hr 0 min 58 sec) 
Heartbeat CPU 0 instructions: 30000002 cycles: 14508778 heartbeat IPC: 1.80587 cumulative IPC: 1.67038 (Simulation time: 0 hr 1 min 32 sec) 
Heartbeat CPU 0 instructions: 40000003 cycles: 21220857 heartbeat IPC: 1.48985 cumulative IPC: 1.60553 (Simulation time: 0 hr 1 min 59 sec) 
Heartbeat CPU 0 instructions: 50000003 cycles: 29404672 heartbeat IPC: 1.22192 cumulative IPC: 1.48869 (Simulation time: 0 hr 2 min 19 sec) 
Heartbeat CPU 0 instructions: 60000001 cycles: 37253672 heartbeat IPC: 1.27405 cumulative IPC: 1.44017 (Simulation time: 0 hr 2 min 39 sec) 
Heartbeat CPU 0 instructions: 70000004 cycles: 43355783 heartbeat IPC: 1.63878 cumulative IPC: 1.46986 (Simulation time: 0 hr 3 min 15 sec) 
Heartbeat CPU 0 instructions: 80000004 cycles: 50094224 heartbeat IPC: 1.48402 cumulative IPC: 1.47186 (Simulation time: 0 hr 3 min 53 sec) 
Heartbeat CPU 0 instructions: 90000001 cycles: 56403802 heartbeat IPC: 1.58489 cumulative IPC: 1.4851 (Simulation time: 0 hr 4 min 22 sec) 
Heartbeat CPU 0 instructions: 100000000 cycles: 64802653 heartbeat IPC: 1.19064 cumulative IPC: 1.44538 (Simulation time: 0 hr 4 min 42 sec) 
Heartbeat CPU 0 instructions: 110000000 cycles: 72767027 heartbeat IPC: 1.25559 cumulative IPC: 1.42386 (Simulation time: 0 hr 5 min 2 sec) 
Finished CPU 0 instructions: 100000003 cycles: 70231578 cumulative IPC: 1.42386 (Simulation time: 0 hr 5 min 2 sec) 

ChampSim completed all CPUs

Region of Interest Statistics

CPU 0 cumulative IPC: 1.42386 instructions: 100000003 cycles: 70231578
cpu0_DTLB TOTAL     ACCESS:   18627577  HIT:   17966926  MISS:     660651
cpu0_DTLB LOAD      ACCESS:    9572366  HIT:    8915624  MISS:     656742
cpu0_DTLB RFO       ACCESS:    9055211  HIT:    9051302  MISS:       3909
cpu0_DTLB PREFETCH  ACCESS:          0  HIT:          0  MISS:          0
cpu0_DTLB WRITEBACK ACCESS:          0  HIT:          0  MISS:          0
cpu0_DTLB TRANSLATION ACCESS:          0  HIT:          0  MISS:          0
cpu0_DTLB PREFETCH  REQUESTED:          0  ISSUED:          0  USEFUL:          0  USELESS:          0
cpu0_DTLB AVERAGE MISS LATENCY: 9.26318 cycles
cpu0_ITLB TOTAL     ACCESS:    6776699  HIT:    6776696  MISS:          3
cpu0_ITLB LOAD      ACCESS:    6776699  HIT:    6776696  MISS:          3
cpu0_ITLB RFO       ACCESS:          0  HIT:          0  MISS:          0
cpu0_ITLB PREFETCH  ACCESS:          0  HIT:          0  MISS:          0
cpu0_ITLB WRITEBACK ACCESS:          0  HIT:          0  MISS:          0
cpu0_ITLB TRANSLATION ACCESS:          0  HIT:          0  MISS:          0
cpu0_ITLB PREFETCH  REQUESTED:          0  ISSUED:          0  USEFUL:          0  USELESS:          0
cpu0_ITLB AVERAGE MISS LATENCY: 395.667 cycles
cpu0_L1I TOTAL     ACCESS:      58691  HIT:      58552  MISS:        139
cpu0_L1I LOAD      ACCESS:      58691  HIT:      58552  MISS:        139
cpu0_L1I RFO       ACCESS:          0  HIT:          0  MISS:          0
cpu0_L1I PREFETCH  ACCESS:          0  HIT:          0  MISS:          0
cpu0_L1I WRITEBACK ACCESS:          0  HIT:          0  MISS:          0
cpu0_L1I TRANSLATION ACCESS:          0  HIT:          0  MISS:          0
cpu0_L1I PREFETCH  REQUESTED:          0  ISSUED:          0  USEFUL:          0  USELESS:          0
cpu0_L1I AVERAGE MISS LATENCY: 205.036 cycles
cpu0_STLB TOTAL     ACCESS:     660654  HIT:     659834  MISS:        820
cpu0_STLB LOAD      ACCESS:     656745  HIT:     656472  MISS:        273
cpu0_STLB RFO       ACCESS:       3909  HIT:       3362  MISS:        547
cpu0_STLB PREFETCH  ACCESS:          0  HIT:          0  MISS:          0
cpu0_STLB WRITEBACK ACCESS:          0  HIT:          0  MISS:          0
cpu0_STLB TRANSLATION ACCESS:          0  HIT:          0  MISS:          0
cpu0_STLB PREFETCH  REQUESTED:          0  ISSUED:          0  USEFUL:          0  USELESS:          0
cpu0_STLB AVERAGE MISS LATENCY: 213.379 cycles
cpu0_L1D TOTAL     ACCESS:   20318227  HIT:   19312658  MISS:    1005569
cpu0_L1D LOAD      ACCESS:   10365400  HIT:    9479028  MISS:     886372
cpu0_L1D RFO       ACCESS:    9952009  HIT:    9833131  MISS:     118878
cpu0_L1D PREFETCH  ACCESS:          0  HIT:          0  MISS:          0
cpu0_L1D WRITEBACK ACCESS:          0  HIT:          0  MISS:          0
cpu0_L1D TRANSLATION ACCESS:        818  HIT:        499  MISS:        319
cpu0_L1D PREFETCH  REQUESTED:          0  ISSUED:          0  USEFUL:          0  USELESS:          0
cpu0_L1D AVERAGE MISS LATENCY: 85.6627 cycles
cpu0_L2C TOTAL     ACCESS:    1222703  HIT:     525085  MISS:     697618
cpu0_L2C LOAD      ACCESS:     886507  HIT:     288917  MISS:     597590
cpu0_L2C RFO       ACCESS:     118877  HIT:      18903  MISS:      99974
cpu0_L2C PREFETCH  ACCESS:          0  HIT:          0  MISS:          0
cpu0_L2C WRITEBACK ACCESS:     217000  HIT:     216964  MISS:         36
cpu0_L2C TRANSLATION ACCESS:        319  HIT:        301  MISS:         18
cpu0_L2C PREFETCH  REQUESTED:          0  ISSUED:          0  USEFUL:          0  USELESS:          0
cpu0_L2C AVERAGE MISS LATENCY: 107.655 cycles
LLC TOTAL     ACCESS:     886582  HIT:     592559  MISS:     294023
LLC LOAD      ACCESS:     597589  HIT:     407338  MISS:     190251
LLC RFO       ACCESS:      99974  HIT:      38676  MISS:      61298
LLC PREFETCH  ACCESS:          0  HIT:          0  MISS:          0
LLC WRITEBACK ACCESS:     189001  HIT:     146543  MISS:      42458
LLC TRANSLATION ACCESS:         18  HIT:          2  MISS:         16
LLC PREFETCH  REQUESTED:          0  ISSUED:          0  USEFUL:          0  USELESS:          0
LLC AVERAGE MISS LATENCY: 205.602 cycles

DRAM Statistics
 CHANNEL 0
 RQ ROW_BUFFER_HIT:      37307  ROW_BUFFER_MISS:     214057
 DBUS AVG_CONGESTED_CYCLE:    3.95254
 WQ ROW_BUFFER_HIT:      14962  ROW_BUFFER_MISS:     111594  FULL:       1552


CPU 0 Branch Prediction Accuracy: 93.3658% MPKI: 11.2167 Average ROB Occupancy at Mispredict: 31.7254
Branch type MPKI
BRANCH_DIRECT_JUMP: 0.0006
BRANCH_INDIRECT: 0.01713
BRANCH_CONDITIONAL: 11.1989
BRANCH_DIRECT_CALL: 5e-05
BRANCH_INDIRECT_CALL: 0
BRANCH_RETURN: 6e-05

