
*** ChampSim Multicore Out-of-Order Simulator ***

Warmup Instructions: 10000000
Simulation Instructions: 100000000
Number of CPUs: 1
Off-chip DRAM Size: 4 GiB Channels: 1 Width: 64-bit Data Rate: 3200 MT/s

VirtualMemory physical capacity: 8588881920 num_ppages: 2096895
VirtualMemory page size: 4096 log2_page_size: 12

CPU 0 runs /datasets/cs240c-wi22-a00-public/data/Assignment2/GemsFDTD_109B.trace.xz
CPU 0 Bimodal branch predictor
Basic BTB sets: 1024 ways: 8 indirect buffer size: 4096 RAS size: 64
5th iteration
No hysteresis, common rrpv
Initialize Hawkeye state
Initialize SRRIP state
Heartbeat CPU 0 instructions: 10000004 cycles: 4294006 heartbeat IPC: 2.32883 cumulative IPC: 2.32883 (Simulation time: 0 hr 0 min 41 sec) 

Warmup complete CPU 0 instructions: 10000004 cycles: 4294006 (Simulation time: 0 hr 0 min 41 sec) 

Heartbeat CPU 0 instructions: 20000000 cycles: 34834196 heartbeat IPC: 0.327437 cumulative IPC: 0.327437 (Simulation time: 0 hr 2 min 58 sec) 
Heartbeat CPU 0 instructions: 30000004 cycles: 57336272 heartbeat IPC: 0.444404 cumulative IPC: 0.377058 (Simulation time: 0 hr 4 min 34 sec) 
Heartbeat CPU 0 instructions: 40000004 cycles: 63618938 heartbeat IPC: 1.59168 cumulative IPC: 0.50569 (Simulation time: 0 hr 5 min 8 sec) 
Heartbeat CPU 0 instructions: 50000002 cycles: 84614968 heartbeat IPC: 0.47628 cumulative IPC: 0.498002 (Simulation time: 0 hr 6 min 39 sec) 
Heartbeat CPU 0 instructions: 60000002 cycles: 125073360 heartbeat IPC: 0.247168 cumulative IPC: 0.413978 (Simulation time: 0 hr 9 min 30 sec) 
Heartbeat CPU 0 instructions: 70000004 cycles: 164866169 heartbeat IPC: 0.251302 cumulative IPC: 0.373664 (Simulation time: 0 hr 12 min 17 sec) 
Heartbeat CPU 0 instructions: 80000004 cycles: 204503402 heartbeat IPC: 0.252288 cumulative IPC: 0.349634 (Simulation time: 0 hr 15 min 4 sec) 
Heartbeat CPU 0 instructions: 90000000 cycles: 244192548 heartbeat IPC: 0.251958 cumulative IPC: 0.333474 (Simulation time: 0 hr 17 min 51 sec) 
Heartbeat CPU 0 instructions: 100000001 cycles: 283900217 heartbeat IPC: 0.251841 cumulative IPC: 0.321881 (Simulation time: 0 hr 20 min 35 sec) 
Heartbeat CPU 0 instructions: 110000004 cycles: 323630256 heartbeat IPC: 0.251699 cumulative IPC: 0.31315 (Simulation time: 0 hr 23 min 20 sec) 
Finished CPU 0 instructions: 100000000 cycles: 319336250 cumulative IPC: 0.31315 (Simulation time: 0 hr 23 min 20 sec) 

ChampSim completed all CPUs

Region of Interest Statistics

CPU 0 cumulative IPC: 0.31315 instructions: 100000000 cycles: 319336250
cpu0_DTLB TOTAL     ACCESS:   26451224  HIT:   26251796  MISS:     199428
cpu0_DTLB LOAD      ACCESS:   21019410  HIT:   20821985  MISS:     197425
cpu0_DTLB RFO       ACCESS:    5431814  HIT:    5429811  MISS:       2003
cpu0_DTLB PREFETCH  ACCESS:          0  HIT:          0  MISS:          0
cpu0_DTLB WRITEBACK ACCESS:          0  HIT:          0  MISS:          0
cpu0_DTLB TRANSLATION ACCESS:          0  HIT:          0  MISS:          0
cpu0_DTLB PREFETCH  REQUESTED:          0  ISSUED:          0  USEFUL:          0  USELESS:          0
cpu0_DTLB AVERAGE MISS LATENCY: 435.779 cycles
cpu0_ITLB TOTAL     ACCESS:    2015163  HIT:    2015145  MISS:         18
cpu0_ITLB LOAD      ACCESS:    2015163  HIT:    2015145  MISS:         18
cpu0_ITLB RFO       ACCESS:          0  HIT:          0  MISS:          0
cpu0_ITLB PREFETCH  ACCESS:          0  HIT:          0  MISS:          0
cpu0_ITLB WRITEBACK ACCESS:          0  HIT:          0  MISS:          0
cpu0_ITLB TRANSLATION ACCESS:          0  HIT:          0  MISS:          0
cpu0_ITLB PREFETCH  REQUESTED:          0  ISSUED:          0  USEFUL:          0  USELESS:          0
cpu0_ITLB AVERAGE MISS LATENCY: 264.056 cycles
cpu0_L1I TOTAL     ACCESS:    1722950  HIT:    1722520  MISS:        430
cpu0_L1I LOAD      ACCESS:    1722950  HIT:    1722520  MISS:        430
cpu0_L1I RFO       ACCESS:          0  HIT:          0  MISS:          0
cpu0_L1I PREFETCH  ACCESS:          0  HIT:          0  MISS:          0
cpu0_L1I WRITEBACK ACCESS:          0  HIT:          0  MISS:          0
cpu0_L1I TRANSLATION ACCESS:          0  HIT:          0  MISS:          0
cpu0_L1I PREFETCH  REQUESTED:          0  ISSUED:          0  USEFUL:          0  USELESS:          0
cpu0_L1I AVERAGE MISS LATENCY: 350.54 cycles
cpu0_STLB TOTAL     ACCESS:     199446  HIT:      33985  MISS:     165461
cpu0_STLB LOAD      ACCESS:     197443  HIT:      32676  MISS:     164767
cpu0_STLB RFO       ACCESS:       2003  HIT:       1309  MISS:        694
cpu0_STLB PREFETCH  ACCESS:          0  HIT:          0  MISS:          0
cpu0_STLB WRITEBACK ACCESS:          0  HIT:          0  MISS:          0
cpu0_STLB TRANSLATION ACCESS:          0  HIT:          0  MISS:          0
cpu0_STLB PREFETCH  REQUESTED:          0  ISSUED:          0  USEFUL:          0  USELESS:          0
cpu0_STLB AVERAGE MISS LATENCY: 514.302 cycles
cpu0_L1D TOTAL     ACCESS:   22868782  HIT:   19638557  MISS:    3230225
cpu0_L1D LOAD      ACCESS:   13770973  HIT:   10671045  MISS:    3099928
cpu0_L1D RFO       ACCESS:    9008196  HIT:    8880583  MISS:     127613
cpu0_L1D PREFETCH  ACCESS:          0  HIT:          0  MISS:          0
cpu0_L1D WRITEBACK ACCESS:          0  HIT:          0  MISS:          0
cpu0_L1D TRANSLATION ACCESS:      89613  HIT:      86929  MISS:       2684
cpu0_L1D PREFETCH  REQUESTED:          0  ISSUED:          0  USEFUL:          0  USELESS:          0
cpu0_L1D AVERAGE MISS LATENCY: 726.552 cycles
cpu0_L2C TOTAL     ACCESS:    4595487  HIT:    1423724  MISS:    3171763
cpu0_L2C LOAD      ACCESS:    3100358  HIT:      41321  MISS:    3059037
cpu0_L2C RFO       ACCESS:     127613  HIT:      15180  MISS:     112433
cpu0_L2C PREFETCH  ACCESS:          0  HIT:          0  MISS:          0
cpu0_L2C WRITEBACK ACCESS:    1364832  HIT:    1364734  MISS:         98
cpu0_L2C TRANSLATION ACCESS:       2684  HIT:       2489  MISS:        195
cpu0_L2C PREFETCH  REQUESTED:          0  ISSUED:          0  USEFUL:          0  USELESS:          0
cpu0_L2C AVERAGE MISS LATENCY: 728.772 cycles
LLC TOTAL     ACCESS:    4522886  HIT:    1059134  MISS:    3463752
LLC LOAD      ACCESS:    3059035  HIT:     699218  MISS:    2359817
LLC RFO       ACCESS:     112433  HIT:      81975  MISS:      30458
LLC PREFETCH  ACCESS:          0  HIT:          0  MISS:          0
LLC WRITEBACK ACCESS:    1351223  HIT:     277850  MISS:    1073373
LLC TRANSLATION ACCESS:        195  HIT:         91  MISS:        104
LLC PREFETCH  REQUESTED:          0  ISSUED:          0  USEFUL:          0  USELESS:          0
LLC AVERAGE MISS LATENCY: 648.105 cycles

DRAM Statistics
 CHANNEL 0
 RQ ROW_BUFFER_HIT:      48748  ROW_BUFFER_MISS:    2341565
 DBUS AVG_CONGESTED_CYCLE:     3.9962
 WQ ROW_BUFFER_HIT:      21752  ROW_BUFFER_MISS:    1245959  FULL:      20990


CPU 0 Branch Prediction Accuracy: 98.929% MPKI: 0.55515 Average ROB Occupancy at Mispredict: 268.656
Branch type MPKI
BRANCH_DIRECT_JUMP: 0.00045
BRANCH_INDIRECT: 1e-05
BRANCH_CONDITIONAL: 0.5534
BRANCH_DIRECT_CALL: 0.00065
BRANCH_INDIRECT_CALL: 0
BRANCH_RETURN: 0.00064

