
*** ChampSim Multicore Out-of-Order Simulator ***

Warmup Instructions: 10000000
Simulation Instructions: 100000000
Number of CPUs: 1
Off-chip DRAM Size: 4 GiB Channels: 1 Width: 64-bit Data Rate: 3200 MT/s

VirtualMemory physical capacity: 8588881920 num_ppages: 2096895
VirtualMemory page size: 4096 log2_page_size: 12

CPU 0 runs /datasets/cs240c-wi22-a00-public/data/Assignment2/hmmer_7B.trace.xz
CPU 0 Bimodal branch predictor
Basic BTB sets: 1024 ways: 8 indirect buffer size: 4096 RAS size: 64
5th iteration
No hysteresis, common rrpv
Initialize Hawkeye state
Initialize SRRIP state
Heartbeat CPU 0 instructions: 10000004 cycles: 3986065 heartbeat IPC: 2.50874 cumulative IPC: 2.50874 (Simulation time: 0 hr 0 min 37 sec) 

Warmup complete CPU 0 instructions: 10000004 cycles: 3986065 (Simulation time: 0 hr 0 min 37 sec) 

Heartbeat CPU 0 instructions: 20000004 cycles: 9290040 heartbeat IPC: 1.88538 cumulative IPC: 1.88538 (Simulation time: 0 hr 1 min 27 sec) 
Heartbeat CPU 0 instructions: 30000001 cycles: 14189787 heartbeat IPC: 2.04092 cumulative IPC: 1.96007 (Simulation time: 0 hr 2 min 14 sec) 
Heartbeat CPU 0 instructions: 40000001 cycles: 18711901 heartbeat IPC: 2.21136 cumulative IPC: 2.03724 (Simulation time: 0 hr 3 min 2 sec) 
Heartbeat CPU 0 instructions: 50000000 cycles: 23915203 heartbeat IPC: 1.92186 cumulative IPC: 2.00711 (Simulation time: 0 hr 3 min 52 sec) 
Heartbeat CPU 0 instructions: 60000000 cycles: 28241817 heartbeat IPC: 2.31128 cumulative IPC: 2.06137 (Simulation time: 0 hr 4 min 37 sec) 
Heartbeat CPU 0 instructions: 70000003 cycles: 32563633 heartbeat IPC: 2.31384 cumulative IPC: 2.09955 (Simulation time: 0 hr 5 min 23 sec) 
Heartbeat CPU 0 instructions: 80000001 cycles: 36872547 heartbeat IPC: 2.32077 cumulative IPC: 2.12853 (Simulation time: 0 hr 6 min 9 sec) 
Heartbeat CPU 0 instructions: 90000004 cycles: 41190804 heartbeat IPC: 2.31575 cumulative IPC: 2.15026 (Simulation time: 0 hr 6 min 55 sec) 
Heartbeat CPU 0 instructions: 100000002 cycles: 45509126 heartbeat IPC: 2.31571 cumulative IPC: 2.16747 (Simulation time: 0 hr 7 min 41 sec) 
Heartbeat CPU 0 instructions: 110000001 cycles: 49837898 heartbeat IPC: 2.31012 cumulative IPC: 2.18094 (Simulation time: 0 hr 8 min 27 sec) 
Finished CPU 0 instructions: 100000002 cycles: 45851834 cumulative IPC: 2.18094 (Simulation time: 0 hr 8 min 27 sec) 

ChampSim completed all CPUs

Region of Interest Statistics

CPU 0 cumulative IPC: 2.18094 instructions: 100000002 cycles: 45851834
cpu0_DTLB TOTAL     ACCESS:   40545105  HIT:   40530949  MISS:      14156
cpu0_DTLB LOAD      ACCESS:   32389887  HIT:   32382169  MISS:       7718
cpu0_DTLB RFO       ACCESS:    8155218  HIT:    8148780  MISS:       6438
cpu0_DTLB PREFETCH  ACCESS:          0  HIT:          0  MISS:          0
cpu0_DTLB WRITEBACK ACCESS:          0  HIT:          0  MISS:          0
cpu0_DTLB TRANSLATION ACCESS:          0  HIT:          0  MISS:          0
cpu0_DTLB PREFETCH  REQUESTED:          0  ISSUED:          0  USEFUL:          0  USELESS:          0
cpu0_DTLB AVERAGE MISS LATENCY: 15.0281 cycles
cpu0_ITLB TOTAL     ACCESS:     797412  HIT:     797340  MISS:         72
cpu0_ITLB LOAD      ACCESS:     797412  HIT:     797340  MISS:         72
cpu0_ITLB RFO       ACCESS:          0  HIT:          0  MISS:          0
cpu0_ITLB PREFETCH  ACCESS:          0  HIT:          0  MISS:          0
cpu0_ITLB WRITEBACK ACCESS:          0  HIT:          0  MISS:          0
cpu0_ITLB TRANSLATION ACCESS:          0  HIT:          0  MISS:          0
cpu0_ITLB PREFETCH  REQUESTED:          0  ISSUED:          0  USEFUL:          0  USELESS:          0
cpu0_ITLB AVERAGE MISS LATENCY: 21 cycles
cpu0_L1I TOTAL     ACCESS:      62145  HIT:      62040  MISS:        105
cpu0_L1I LOAD      ACCESS:      62145  HIT:      62040  MISS:        105
cpu0_L1I RFO       ACCESS:          0  HIT:          0  MISS:          0
cpu0_L1I PREFETCH  ACCESS:          0  HIT:          0  MISS:          0
cpu0_L1I WRITEBACK ACCESS:          0  HIT:          0  MISS:          0
cpu0_L1I TRANSLATION ACCESS:          0  HIT:          0  MISS:          0
cpu0_L1I PREFETCH  REQUESTED:          0  ISSUED:          0  USEFUL:          0  USELESS:          0
cpu0_L1I AVERAGE MISS LATENCY: 104.267 cycles
cpu0_STLB TOTAL     ACCESS:      14228  HIT:      13773  MISS:        455
cpu0_STLB LOAD      ACCESS:       7790  HIT:       7782  MISS:          8
cpu0_STLB RFO       ACCESS:       6438  HIT:       5991  MISS:        447
cpu0_STLB PREFETCH  ACCESS:          0  HIT:          0  MISS:          0
cpu0_STLB WRITEBACK ACCESS:          0  HIT:          0  MISS:          0
cpu0_STLB TRANSLATION ACCESS:          0  HIT:          0  MISS:          0
cpu0_STLB PREFETCH  REQUESTED:          0  ISSUED:          0  USEFUL:          0  USELESS:          0
cpu0_STLB AVERAGE MISS LATENCY: 189.251 cycles
cpu0_L1D TOTAL     ACCESS:   33452857  HIT:   32982728  MISS:     470129
cpu0_L1D LOAD      ACCESS:   28673612  HIT:   28512214  MISS:     161398
cpu0_L1D RFO       ACCESS:    4778791  HIT:    4470083  MISS:     308708
cpu0_L1D PREFETCH  ACCESS:          0  HIT:          0  MISS:          0
cpu0_L1D WRITEBACK ACCESS:          0  HIT:          0  MISS:          0
cpu0_L1D TRANSLATION ACCESS:        454  HIT:        431  MISS:         23
cpu0_L1D PREFETCH  REQUESTED:          0  ISSUED:          0  USEFUL:          0  USELESS:          0
cpu0_L1D AVERAGE MISS LATENCY: 247.672 cycles
cpu0_L2C TOTAL     ACCESS:     777222  HIT:     472295  MISS:     304927
cpu0_L2C LOAD      ACCESS:     161503  HIT:     149265  MISS:      12238
cpu0_L2C RFO       ACCESS:     308708  HIT:      16074  MISS:     292634
cpu0_L2C PREFETCH  ACCESS:          0  HIT:          0  MISS:          0
cpu0_L2C WRITEBACK ACCESS:     306988  HIT:     306941  MISS:         47
cpu0_L2C TRANSLATION ACCESS:         23  HIT:         15  MISS:          8
cpu0_L2C PREFETCH  REQUESTED:          0  ISSUED:          0  USEFUL:          0  USELESS:          0
cpu0_L2C AVERAGE MISS LATENCY: 364.913 cycles
LLC TOTAL     ACCESS:     596386  HIT:     445299  MISS:     151087
LLC LOAD      ACCESS:      12237  HIT:      10805  MISS:       1432
LLC RFO       ACCESS:     292633  HIT:     210253  MISS:      82380
LLC PREFETCH  ACCESS:          0  HIT:          0  MISS:          0
LLC WRITEBACK ACCESS:     291508  HIT:     224236  MISS:      67272
LLC TRANSLATION ACCESS:          8  HIT:          5  MISS:          3
LLC PREFETCH  REQUESTED:          0  ISSUED:          0  USEFUL:          0  USELESS:          0
LLC AVERAGE MISS LATENCY: 694.097 cycles

DRAM Statistics
 CHANNEL 0
 RQ ROW_BUFFER_HIT:       1341  ROW_BUFFER_MISS:      82472
 DBUS AVG_CONGESTED_CYCLE:    3.99398
 WQ ROW_BUFFER_HIT:       4713  ROW_BUFFER_MISS:      77151  FULL:       4530


CPU 0 Branch Prediction Accuracy: 98.9368% MPKI: 0.40856 Average ROB Occupancy at Mispredict: 252.393
Branch type MPKI
BRANCH_DIRECT_JUMP: 0.00016
BRANCH_INDIRECT: 0.00157
BRANCH_CONDITIONAL: 0.40659
BRANCH_DIRECT_CALL: 9e-05
BRANCH_INDIRECT_CALL: 3e-05
BRANCH_RETURN: 0.00012

