
*** ChampSim Multicore Out-of-Order Simulator ***

Warmup Instructions: 10000000
Simulation Instructions: 100000000
Number of CPUs: 1
Off-chip DRAM Size: 4 GiB Channels: 1 Width: 64-bit Data Rate: 3200 MT/s

VirtualMemory physical capacity: 8588881920 num_ppages: 2096895
VirtualMemory page size: 4096 log2_page_size: 12

CPU 0 runs /datasets/cs240c-wi22-a00-public/data/Assignment2/hmmer_397B.trace.xz
CPU 0 Bimodal branch predictor
Basic BTB sets: 1024 ways: 8 indirect buffer size: 4096 RAS size: 64
5th iteration
No hysteresis, common rrpv
Initialize Hawkeye state
Initialize SRRIP state
Heartbeat CPU 0 instructions: 10000000 cycles: 3996187 heartbeat IPC: 2.50239 cumulative IPC: 2.50239 (Simulation time: 0 hr 0 min 36 sec) 

Warmup complete CPU 0 instructions: 10000005 cycles: 3996190 (Simulation time: 0 hr 0 min 36 sec) 

Heartbeat CPU 0 instructions: 20000002 cycles: 9226580 heartbeat IPC: 1.9119 cumulative IPC: 1.9119 (Simulation time: 0 hr 1 min 25 sec) 
Heartbeat CPU 0 instructions: 30000003 cycles: 14147686 heartbeat IPC: 2.03206 cumulative IPC: 1.97015 (Simulation time: 0 hr 2 min 13 sec) 
Heartbeat CPU 0 instructions: 40000003 cycles: 19028129 heartbeat IPC: 2.04899 cumulative IPC: 1.99575 (Simulation time: 0 hr 3 min 1 sec) 
Heartbeat CPU 0 instructions: 50000001 cycles: 24038411 heartbeat IPC: 1.9959 cumulative IPC: 1.99579 (Simulation time: 0 hr 3 min 49 sec) 
Heartbeat CPU 0 instructions: 60000002 cycles: 28912157 heartbeat IPC: 2.05181 cumulative IPC: 2.00675 (Simulation time: 0 hr 4 min 38 sec) 
Heartbeat CPU 0 instructions: 70000004 cycles: 33387792 heartbeat IPC: 2.23432 cumulative IPC: 2.0414 (Simulation time: 0 hr 5 min 25 sec) 
Heartbeat CPU 0 instructions: 80000000 cycles: 37732523 heartbeat IPC: 2.30164 cumulative IPC: 2.07491 (Simulation time: 0 hr 6 min 12 sec) 
Heartbeat CPU 0 instructions: 90000004 cycles: 42094146 heartbeat IPC: 2.29273 cumulative IPC: 2.09985 (Simulation time: 0 hr 6 min 59 sec) 
Heartbeat CPU 0 instructions: 100000003 cycles: 46429988 heartbeat IPC: 2.30636 cumulative IPC: 2.12095 (Simulation time: 0 hr 7 min 46 sec) 
Heartbeat CPU 0 instructions: 110000001 cycles: 50777582 heartbeat IPC: 2.30012 cumulative IPC: 2.1376 (Simulation time: 0 hr 8 min 31 sec) 
Finished CPU 0 instructions: 100000001 cycles: 46781393 cumulative IPC: 2.1376 (Simulation time: 0 hr 8 min 31 sec) 

ChampSim completed all CPUs

Region of Interest Statistics

CPU 0 cumulative IPC: 2.1376 instructions: 100000001 cycles: 46781393
cpu0_DTLB TOTAL     ACCESS:   40465895  HIT:   40457938  MISS:       7957
cpu0_DTLB LOAD      ACCESS:   32302633  HIT:   32299760  MISS:       2873
cpu0_DTLB RFO       ACCESS:    8163262  HIT:    8158178  MISS:       5084
cpu0_DTLB PREFETCH  ACCESS:          0  HIT:          0  MISS:          0
cpu0_DTLB WRITEBACK ACCESS:          0  HIT:          0  MISS:          0
cpu0_DTLB TRANSLATION ACCESS:          0  HIT:          0  MISS:          0
cpu0_DTLB PREFETCH  REQUESTED:          0  ISSUED:          0  USEFUL:          0  USELESS:          0
cpu0_DTLB AVERAGE MISS LATENCY: 25.0274 cycles
cpu0_ITLB TOTAL     ACCESS:     800990  HIT:     800883  MISS:        107
cpu0_ITLB LOAD      ACCESS:     800990  HIT:     800883  MISS:        107
cpu0_ITLB RFO       ACCESS:          0  HIT:          0  MISS:          0
cpu0_ITLB PREFETCH  ACCESS:          0  HIT:          0  MISS:          0
cpu0_ITLB WRITEBACK ACCESS:          0  HIT:          0  MISS:          0
cpu0_ITLB TRANSLATION ACCESS:          0  HIT:          0  MISS:          0
cpu0_ITLB PREFETCH  REQUESTED:          0  ISSUED:          0  USEFUL:          0  USELESS:          0
cpu0_ITLB AVERAGE MISS LATENCY: 79.2617 cycles
cpu0_L1I TOTAL     ACCESS:      64571  HIT:      64235  MISS:        336
cpu0_L1I LOAD      ACCESS:      64571  HIT:      64235  MISS:        336
cpu0_L1I RFO       ACCESS:          0  HIT:          0  MISS:          0
cpu0_L1I PREFETCH  ACCESS:          0  HIT:          0  MISS:          0
cpu0_L1I WRITEBACK ACCESS:          0  HIT:          0  MISS:          0
cpu0_L1I TRANSLATION ACCESS:          0  HIT:          0  MISS:          0
cpu0_L1I PREFETCH  REQUESTED:          0  ISSUED:          0  USEFUL:          0  USELESS:          0
cpu0_L1I AVERAGE MISS LATENCY: 313.908 cycles
cpu0_STLB TOTAL     ACCESS:       8064  HIT:       7284  MISS:        780
cpu0_STLB LOAD      ACCESS:       2980  HIT:       2813  MISS:        167
cpu0_STLB RFO       ACCESS:       5084  HIT:       4471  MISS:        613
cpu0_STLB PREFETCH  ACCESS:          0  HIT:          0  MISS:          0
cpu0_STLB WRITEBACK ACCESS:          0  HIT:          0  MISS:          0
cpu0_STLB TRANSLATION ACCESS:          0  HIT:          0  MISS:          0
cpu0_STLB PREFETCH  REQUESTED:          0  ISSUED:          0  USEFUL:          0  USELESS:          0
cpu0_STLB AVERAGE MISS LATENCY: 173.049 cycles
cpu0_L1D TOTAL     ACCESS:   32732270  HIT:   32266518  MISS:     465752
cpu0_L1D LOAD      ACCESS:   28660112  HIT:   28503531  MISS:     156581
cpu0_L1D RFO       ACCESS:    4071387  HIT:    3762402  MISS:     308985
cpu0_L1D PREFETCH  ACCESS:          0  HIT:          0  MISS:          0
cpu0_L1D WRITEBACK ACCESS:          0  HIT:          0  MISS:          0
cpu0_L1D TRANSLATION ACCESS:        771  HIT:        585  MISS:        186
cpu0_L1D PREFETCH  REQUESTED:          0  ISSUED:          0  USEFUL:          0  USELESS:          0
cpu0_L1D AVERAGE MISS LATENCY: 329.513 cycles
cpu0_L2C TOTAL     ACCESS:     772868  HIT:     485674  MISS:     287194
cpu0_L2C LOAD      ACCESS:     156917  HIT:     142231  MISS:      14686
cpu0_L2C RFO       ACCESS:     308985  HIT:      36531  MISS:     272454
cpu0_L2C PREFETCH  ACCESS:          0  HIT:          0  MISS:          0
cpu0_L2C WRITEBACK ACCESS:     306780  HIT:     306743  MISS:         37
cpu0_L2C TRANSLATION ACCESS:        186  HIT:        169  MISS:         17
cpu0_L2C PREFETCH  REQUESTED:          0  ISSUED:          0  USEFUL:          0  USELESS:          0
cpu0_L2C AVERAGE MISS LATENCY: 516.884 cycles
LLC TOTAL     ACCESS:     558005  HIT:     341250  MISS:     216755
LLC LOAD      ACCESS:      14686  HIT:      11414  MISS:       3272
LLC RFO       ACCESS:     272307  HIT:     139429  MISS:     132878
LLC PREFETCH  ACCESS:          0  HIT:          0  MISS:          0
LLC WRITEBACK ACCESS:     270995  HIT:     190395  MISS:      80600
LLC TRANSLATION ACCESS:         17  HIT:         12  MISS:          5
LLC PREFETCH  REQUESTED:          0  ISSUED:          0  USEFUL:          0  USELESS:          0
LLC AVERAGE MISS LATENCY: 657.048 cycles

DRAM Statistics
 CHANNEL 0
 RQ ROW_BUFFER_HIT:       1729  ROW_BUFFER_MISS:     134425
 DBUS AVG_CONGESTED_CYCLE:     3.9939
 WQ ROW_BUFFER_HIT:       8514  ROW_BUFFER_MISS:     128756  FULL:       2079


CPU 0 Branch Prediction Accuracy: 98.9257% MPKI: 0.41399 Average ROB Occupancy at Mispredict: 249.984
Branch type MPKI
BRANCH_DIRECT_JUMP: 0.00081
BRANCH_INDIRECT: 0.00176
BRANCH_CONDITIONAL: 0.40978
BRANCH_DIRECT_CALL: 0.00081
BRANCH_INDIRECT_CALL: 2e-05
BRANCH_RETURN: 0.00081

