
*** ChampSim Multicore Out-of-Order Simulator ***

Warmup Instructions: 10000000
Simulation Instructions: 100000000
Number of CPUs: 1
Off-chip DRAM Size: 4 GiB Channels: 1 Width: 64-bit Data Rate: 3200 MT/s

VirtualMemory physical capacity: 8588881920 num_ppages: 2096895
VirtualMemory page size: 4096 log2_page_size: 12

CPU 0 runs /datasets/cs240c-wi22-a00-public/data/Assignment2/perlbench_135B.trace.xz
CPU 0 Bimodal branch predictor
Basic BTB sets: 1024 ways: 8 indirect buffer size: 4096 RAS size: 64
5th iteration
No hysteresis, common rrpv
Initialize Hawkeye state
Initialize SRRIP state
Heartbeat CPU 0 instructions: 10000000 cycles: 2501133 heartbeat IPC: 3.99819 cumulative IPC: 3.99819 (Simulation time: 0 hr 0 min 21 sec) 

Warmup complete CPU 0 instructions: 10000004 cycles: 2501134 (Simulation time: 0 hr 0 min 21 sec) 

Heartbeat CPU 0 instructions: 20000003 cycles: 16326756 heartbeat IPC: 0.723295 cumulative IPC: 0.723295 (Simulation time: 0 hr 0 min 54 sec) 
Heartbeat CPU 0 instructions: 30000004 cycles: 29139755 heartbeat IPC: 0.780457 cumulative IPC: 0.75079 (Simulation time: 0 hr 1 min 27 sec) 
Heartbeat CPU 0 instructions: 40000001 cycles: 40569567 heartbeat IPC: 0.874905 cumulative IPC: 0.788054 (Simulation time: 0 hr 1 min 57 sec) 
Heartbeat CPU 0 instructions: 50000000 cycles: 53180145 heartbeat IPC: 0.792985 cumulative IPC: 0.789281 (Simulation time: 0 hr 2 min 28 sec) 
Heartbeat CPU 0 instructions: 60000000 cycles: 64758385 heartbeat IPC: 0.863689 cumulative IPC: 0.803119 (Simulation time: 0 hr 2 min 58 sec) 
Heartbeat CPU 0 instructions: 70000001 cycles: 77677427 heartbeat IPC: 0.774051 cumulative IPC: 0.798124 (Simulation time: 0 hr 3 min 29 sec) 
Heartbeat CPU 0 instructions: 80000000 cycles: 88618620 heartbeat IPC: 0.913977 cumulative IPC: 0.812843 (Simulation time: 0 hr 3 min 57 sec) 
Heartbeat CPU 0 instructions: 90000004 cycles: 99491265 heartbeat IPC: 0.91974 cumulative IPC: 0.824826 (Simulation time: 0 hr 4 min 25 sec) 
Heartbeat CPU 0 instructions: 100000000 cycles: 113011403 heartbeat IPC: 0.739637 cumulative IPC: 0.814404 (Simulation time: 0 hr 4 min 57 sec) 
Heartbeat CPU 0 instructions: 110000000 cycles: 126307770 heartbeat IPC: 0.752085 cumulative IPC: 0.807711 (Simulation time: 0 hr 5 min 29 sec) 
Finished CPU 0 instructions: 100000000 cycles: 123806638 cumulative IPC: 0.807711 (Simulation time: 0 hr 5 min 29 sec) 

ChampSim completed all CPUs

Region of Interest Statistics

CPU 0 cumulative IPC: 0.807711 instructions: 100000000 cycles: 123806638
cpu0_DTLB TOTAL     ACCESS:   24834363  HIT:   24177619  MISS:     656744
cpu0_DTLB LOAD      ACCESS:   16163673  HIT:   15592230  MISS:     571443
cpu0_DTLB RFO       ACCESS:    8670690  HIT:    8585389  MISS:      85301
cpu0_DTLB PREFETCH  ACCESS:          0  HIT:          0  MISS:          0
cpu0_DTLB WRITEBACK ACCESS:          0  HIT:          0  MISS:          0
cpu0_DTLB TRANSLATION ACCESS:          0  HIT:          0  MISS:          0
cpu0_DTLB PREFETCH  REQUESTED:          0  ISSUED:          0  USEFUL:          0  USELESS:          0
cpu0_DTLB AVERAGE MISS LATENCY: 9.30707 cycles
cpu0_ITLB TOTAL     ACCESS:    8520325  HIT:    8442161  MISS:      78164
cpu0_ITLB LOAD      ACCESS:    8520325  HIT:    8442161  MISS:      78164
cpu0_ITLB RFO       ACCESS:          0  HIT:          0  MISS:          0
cpu0_ITLB PREFETCH  ACCESS:          0  HIT:          0  MISS:          0
cpu0_ITLB WRITEBACK ACCESS:          0  HIT:          0  MISS:          0
cpu0_ITLB TRANSLATION ACCESS:          0  HIT:          0  MISS:          0
cpu0_ITLB PREFETCH  REQUESTED:          0  ISSUED:          0  USEFUL:          0  USELESS:          0
cpu0_ITLB AVERAGE MISS LATENCY: 9.1144 cycles
cpu0_L1I TOTAL     ACCESS:    9976967  HIT:    9296655  MISS:     680312
cpu0_L1I LOAD      ACCESS:    9976967  HIT:    9296655  MISS:     680312
cpu0_L1I RFO       ACCESS:          0  HIT:          0  MISS:          0
cpu0_L1I PREFETCH  ACCESS:          0  HIT:          0  MISS:          0
cpu0_L1I WRITEBACK ACCESS:          0  HIT:          0  MISS:          0
cpu0_L1I TRANSLATION ACCESS:          0  HIT:          0  MISS:          0
cpu0_L1I PREFETCH  REQUESTED:          0  ISSUED:          0  USEFUL:          0  USELESS:          0
cpu0_L1I AVERAGE MISS LATENCY: 12.1598 cycles
cpu0_STLB TOTAL     ACCESS:     734908  HIT:     726455  MISS:       8453
cpu0_STLB LOAD      ACCESS:     649607  HIT:     642242  MISS:       7365
cpu0_STLB RFO       ACCESS:      85301  HIT:      84213  MISS:       1088
cpu0_STLB PREFETCH  ACCESS:          0  HIT:          0  MISS:          0
cpu0_STLB WRITEBACK ACCESS:          0  HIT:          0  MISS:          0
cpu0_STLB TRANSLATION ACCESS:          0  HIT:          0  MISS:          0
cpu0_STLB PREFETCH  REQUESTED:          0  ISSUED:          0  USEFUL:          0  USELESS:          0
cpu0_STLB AVERAGE MISS LATENCY: 24.4291 cycles
cpu0_L1D TOTAL     ACCESS:   32040105  HIT:   31087316  MISS:     952789
cpu0_L1D LOAD      ACCESS:   16947649  HIT:   16083202  MISS:     864447
cpu0_L1D RFO       ACCESS:   15084041  HIT:   14997261  MISS:      86780
cpu0_L1D PREFETCH  ACCESS:          0  HIT:          0  MISS:          0
cpu0_L1D WRITEBACK ACCESS:          0  HIT:          0  MISS:          0
cpu0_L1D TRANSLATION ACCESS:       8415  HIT:       6853  MISS:       1562
cpu0_L1D PREFETCH  REQUESTED:          0  ISSUED:          0  USEFUL:          0  USELESS:          0
cpu0_L1D AVERAGE MISS LATENCY: 17.59 cycles
cpu0_L2C TOTAL     ACCESS:    1889405  HIT:    1714324  MISS:     175081
cpu0_L2C LOAD      ACCESS:    1544745  HIT:    1392620  MISS:     152125
cpu0_L2C RFO       ACCESS:      86773  HIT:      64517  MISS:      22256
cpu0_L2C PREFETCH  ACCESS:          0  HIT:          0  MISS:          0
cpu0_L2C WRITEBACK ACCESS:     256325  HIT:     255855  MISS:        470
cpu0_L2C TRANSLATION ACCESS:       1562  HIT:       1332  MISS:        230
cpu0_L2C PREFETCH  REQUESTED:          0  ISSUED:          0  USEFUL:          0  USELESS:          0
cpu0_L2C AVERAGE MISS LATENCY: 40.2165 cycles
LLC TOTAL     ACCESS:     226403  HIT:     202808  MISS:      23595
LLC LOAD      ACCESS:     152125  HIT:     133826  MISS:      18299
LLC RFO       ACCESS:      22256  HIT:      17489  MISS:       4767
LLC PREFETCH  ACCESS:          0  HIT:          0  MISS:          0
LLC WRITEBACK ACCESS:      51792  HIT:      51269  MISS:        523
LLC TRANSLATION ACCESS:        230  HIT:        224  MISS:          6
LLC PREFETCH  REQUESTED:          0  ISSUED:          0  USEFUL:          0  USELESS:          0
LLC AVERAGE MISS LATENCY: 143.009 cycles

DRAM Statistics
 CHANNEL 0
 RQ ROW_BUFFER_HIT:       4865  ROW_BUFFER_MISS:      18207
 DBUS AVG_CONGESTED_CYCLE:    3.85728
 WQ ROW_BUFFER_HIT:       1215  ROW_BUFFER_MISS:       3441  FULL:          0


CPU 0 Branch Prediction Accuracy: 94.5426% MPKI: 12.0745 Average ROB Occupancy at Mispredict: 40.8754
Branch type MPKI
BRANCH_DIRECT_JUMP: 0.00217
BRANCH_INDIRECT: 0.80239
BRANCH_CONDITIONAL: 9.8183
BRANCH_DIRECT_CALL: 0.00216
BRANCH_INDIRECT_CALL: 1.42497
BRANCH_RETURN: 0.02455

