
*** ChampSim Multicore Out-of-Order Simulator ***

Warmup Instructions: 10000000
Simulation Instructions: 100000000
Number of CPUs: 1
Off-chip DRAM Size: 4 GiB Channels: 1 Width: 64-bit Data Rate: 3200 MT/s

VirtualMemory physical capacity: 8588881920 num_ppages: 2096895
VirtualMemory page size: 4096 log2_page_size: 12

CPU 0 runs /datasets/cs240c-wi22-a00-public/data/Assignment2/wrf_1212B.trace.xz
CPU 0 Bimodal branch predictor
Basic BTB sets: 1024 ways: 8 indirect buffer size: 4096 RAS size: 64
5th iteration
No hysteresis, common rrpv
Initialize Hawkeye state
Initialize SRRIP state
Heartbeat CPU 0 instructions: 10000004 cycles: 2552145 heartbeat IPC: 3.91827 cumulative IPC: 3.91827 (Simulation time: 0 hr 0 min 20 sec) 

Warmup complete CPU 0 instructions: 10000004 cycles: 2552145 (Simulation time: 0 hr 0 min 20 sec) 

Heartbeat CPU 0 instructions: 20000000 cycles: 9018758 heartbeat IPC: 1.5464 cumulative IPC: 1.5464 (Simulation time: 0 hr 0 min 53 sec) 
Heartbeat CPU 0 instructions: 30000002 cycles: 15456624 heartbeat IPC: 1.55331 cumulative IPC: 1.54985 (Simulation time: 0 hr 1 min 25 sec) 
Heartbeat CPU 0 instructions: 40000002 cycles: 21898822 heartbeat IPC: 1.55227 cumulative IPC: 1.55065 (Simulation time: 0 hr 1 min 57 sec) 
Heartbeat CPU 0 instructions: 50000003 cycles: 28354366 heartbeat IPC: 1.54906 cumulative IPC: 1.55025 (Simulation time: 0 hr 2 min 30 sec) 
Heartbeat CPU 0 instructions: 60000000 cycles: 34833270 heartbeat IPC: 1.54347 cumulative IPC: 1.54889 (Simulation time: 0 hr 3 min 2 sec) 
Heartbeat CPU 0 instructions: 70000002 cycles: 41474876 heartbeat IPC: 1.50566 cumulative IPC: 1.54152 (Simulation time: 0 hr 3 min 34 sec) 
Heartbeat CPU 0 instructions: 80000001 cycles: 48078528 heartbeat IPC: 1.51431 cumulative IPC: 1.53757 (Simulation time: 0 hr 4 min 7 sec) 
Heartbeat CPU 0 instructions: 90000000 cycles: 54572832 heartbeat IPC: 1.53981 cumulative IPC: 1.53785 (Simulation time: 0 hr 4 min 40 sec) 
Heartbeat CPU 0 instructions: 100000003 cycles: 61012966 heartbeat IPC: 1.55276 cumulative IPC: 1.53949 (Simulation time: 0 hr 5 min 13 sec) 
Heartbeat CPU 0 instructions: 110000001 cycles: 67404576 heartbeat IPC: 1.56455 cumulative IPC: 1.54196 (Simulation time: 0 hr 5 min 45 sec) 
Finished CPU 0 instructions: 100000002 cycles: 64852432 cumulative IPC: 1.54196 (Simulation time: 0 hr 5 min 45 sec) 

ChampSim completed all CPUs

Region of Interest Statistics

CPU 0 cumulative IPC: 1.54196 instructions: 100000002 cycles: 64852432
cpu0_DTLB TOTAL     ACCESS:   18869652  HIT:   18629092  MISS:     240560
cpu0_DTLB LOAD      ACCESS:   12070861  HIT:   11914340  MISS:     156521
cpu0_DTLB RFO       ACCESS:    6798791  HIT:    6714752  MISS:      84039
cpu0_DTLB PREFETCH  ACCESS:          0  HIT:          0  MISS:          0
cpu0_DTLB WRITEBACK ACCESS:          0  HIT:          0  MISS:          0
cpu0_DTLB TRANSLATION ACCESS:          0  HIT:          0  MISS:          0
cpu0_DTLB PREFETCH  REQUESTED:          0  ISSUED:          0  USEFUL:          0  USELESS:          0
cpu0_DTLB AVERAGE MISS LATENCY: 14.8444 cycles
cpu0_ITLB TOTAL     ACCESS:    5651236  HIT:    5651236  MISS:          0
cpu0_ITLB LOAD      ACCESS:    5651236  HIT:    5651236  MISS:          0
cpu0_ITLB RFO       ACCESS:          0  HIT:          0  MISS:          0
cpu0_ITLB PREFETCH  ACCESS:          0  HIT:          0  MISS:          0
cpu0_ITLB WRITEBACK ACCESS:          0  HIT:          0  MISS:          0
cpu0_ITLB TRANSLATION ACCESS:          0  HIT:          0  MISS:          0
cpu0_ITLB PREFETCH  REQUESTED:          0  ISSUED:          0  USEFUL:          0  USELESS:          0
cpu0_ITLB AVERAGE MISS LATENCY: -nan cycles
cpu0_L1I TOTAL     ACCESS:    9013411  HIT:    8969602  MISS:      43809
cpu0_L1I LOAD      ACCESS:    9013411  HIT:    8969602  MISS:      43809
cpu0_L1I RFO       ACCESS:          0  HIT:          0  MISS:          0
cpu0_L1I PREFETCH  ACCESS:          0  HIT:          0  MISS:          0
cpu0_L1I WRITEBACK ACCESS:          0  HIT:          0  MISS:          0
cpu0_L1I TRANSLATION ACCESS:          0  HIT:          0  MISS:          0
cpu0_L1I PREFETCH  REQUESTED:          0  ISSUED:          0  USEFUL:          0  USELESS:          0
cpu0_L1I AVERAGE MISS LATENCY: 11.7346 cycles
cpu0_STLB TOTAL     ACCESS:     240560  HIT:     239297  MISS:       1263
cpu0_STLB LOAD      ACCESS:     156521  HIT:     155272  MISS:       1249
cpu0_STLB RFO       ACCESS:      84039  HIT:      84025  MISS:         14
cpu0_STLB PREFETCH  ACCESS:          0  HIT:          0  MISS:          0
cpu0_STLB WRITEBACK ACCESS:          0  HIT:          0  MISS:          0
cpu0_STLB TRANSLATION ACCESS:          0  HIT:          0  MISS:          0
cpu0_STLB PREFETCH  REQUESTED:          0  ISSUED:          0  USEFUL:          0  USELESS:          0
cpu0_STLB AVERAGE MISS LATENCY: 1093.97 cycles
cpu0_L1D TOTAL     ACCESS:   29575785  HIT:   29172182  MISS:     403603
cpu0_L1D LOAD      ACCESS:   14322491  HIT:   13997846  MISS:     324645
cpu0_L1D RFO       ACCESS:   15252321  HIT:   15173589  MISS:      78732
cpu0_L1D PREFETCH  ACCESS:          0  HIT:          0  MISS:          0
cpu0_L1D WRITEBACK ACCESS:          0  HIT:          0  MISS:          0
cpu0_L1D TRANSLATION ACCESS:        973  HIT:        747  MISS:        226
cpu0_L1D PREFETCH  REQUESTED:          0  ISSUED:          0  USEFUL:          0  USELESS:          0
cpu0_L1D AVERAGE MISS LATENCY: 117.483 cycles
cpu0_L2C TOTAL     ACCESS:     589988  HIT:     511521  MISS:      78467
cpu0_L2C LOAD      ACCESS:     368454  HIT:     291147  MISS:      77307
cpu0_L2C RFO       ACCESS:      77260  HIT:      76345  MISS:        915
cpu0_L2C PREFETCH  ACCESS:          0  HIT:          0  MISS:          0
cpu0_L2C WRITEBACK ACCESS:     144048  HIT:     143821  MISS:        227
cpu0_L2C TRANSLATION ACCESS:        226  HIT:        208  MISS:         18
cpu0_L2C PREFETCH  REQUESTED:          0  ISSUED:          0  USEFUL:          0  USELESS:          0
cpu0_L2C AVERAGE MISS LATENCY: 547.56 cycles
LLC TOTAL     ACCESS:     115146  HIT:      19057  MISS:      96089
LLC LOAD      ACCESS:      77307  HIT:        305  MISS:      77002
LLC RFO       ACCESS:        915  HIT:         10  MISS:        905
LLC PREFETCH  ACCESS:          0  HIT:          0  MISS:          0
LLC WRITEBACK ACCESS:      36906  HIT:      18728  MISS:      18178
LLC TRANSLATION ACCESS:         18  HIT:         14  MISS:          4
LLC PREFETCH  REQUESTED:          0  ISSUED:          0  USEFUL:          0  USELESS:          0
LLC AVERAGE MISS LATENCY: 430.042 cycles

DRAM Statistics
 CHANNEL 0
 RQ ROW_BUFFER_HIT:       2548  ROW_BUFFER_MISS:      75363
 DBUS AVG_CONGESTED_CYCLE:    3.96181
 WQ ROW_BUFFER_HIT:        311  ROW_BUFFER_MISS:      21714  FULL:          0


CPU 0 Branch Prediction Accuracy: 97.2223% MPKI: 4.86341 Average ROB Occupancy at Mispredict: 61.3837
Branch type MPKI
BRANCH_DIRECT_JUMP: 0.00019
BRANCH_INDIRECT: 0
BRANCH_CONDITIONAL: 4.86284
BRANCH_DIRECT_CALL: 0.00021
BRANCH_INDIRECT_CALL: 0
BRANCH_RETURN: 0.00017

