
*** ChampSim Multicore Out-of-Order Simulator ***

Warmup Instructions: 10000000
Simulation Instructions: 100000000
Number of CPUs: 1
Off-chip DRAM Size: 4 GiB Channels: 1 Width: 64-bit Data Rate: 3200 MT/s

VirtualMemory physical capacity: 8588881920 num_ppages: 2096895
VirtualMemory page size: 4096 log2_page_size: 12

CPU 0 runs /datasets/cs240c-wi22-a00-public/data/Assignment2/bzip2_281B.trace.xz
CPU 0 Bimodal branch predictor
Basic BTB sets: 1024 ways: 8 indirect buffer size: 4096 RAS size: 64
5th iteration
No hysteresis, common rrpv
Initialize Hawkeye state
Initialize SRRIP state
Heartbeat CPU 0 instructions: 10000004 cycles: 3227486 heartbeat IPC: 3.09839 cumulative IPC: 3.09839 (Simulation time: 0 hr 0 min 59 sec) 

Warmup complete CPU 0 instructions: 10000004 cycles: 3227486 (Simulation time: 0 hr 0 min 59 sec) 

Heartbeat CPU 0 instructions: 20000000 cycles: 13836059 heartbeat IPC: 0.942633 cumulative IPC: 0.942633 (Simulation time: 0 hr 2 min 12 sec) 
Heartbeat CPU 0 instructions: 30000001 cycles: 26014450 heartbeat IPC: 0.821127 cumulative IPC: 0.877695 (Simulation time: 0 hr 3 min 56 sec) 
Heartbeat CPU 0 instructions: 40000002 cycles: 30607935 heartbeat IPC: 2.177 cumulative IPC: 1.09567 (Simulation time: 0 hr 4 min 39 sec) 
Heartbeat CPU 0 instructions: 50000002 cycles: 35583845 heartbeat IPC: 2.00968 cumulative IPC: 1.23623 (Simulation time: 0 hr 5 min 23 sec) 
Heartbeat CPU 0 instructions: 60000000 cycles: 40671403 heartbeat IPC: 1.96558 cumulative IPC: 1.33533 (Simulation time: 0 hr 6 min 10 sec) 
Heartbeat CPU 0 instructions: 70000004 cycles: 48196430 heartbeat IPC: 1.3289 cumulative IPC: 1.33425 (Simulation time: 0 hr 7 min 12 sec) 
Heartbeat CPU 0 instructions: 80000003 cycles: 55819007 heartbeat IPC: 1.31189 cumulative IPC: 1.33101 (Simulation time: 0 hr 7 min 58 sec) 
Heartbeat CPU 0 instructions: 90000003 cycles: 62211642 heartbeat IPC: 1.5643 cumulative IPC: 1.3563 (Simulation time: 0 hr 8 min 27 sec) 
Heartbeat CPU 0 instructions: 100000001 cycles: 68857779 heartbeat IPC: 1.50463 cumulative IPC: 1.37132 (Simulation time: 0 hr 8 min 56 sec) 
Heartbeat CPU 0 instructions: 110000000 cycles: 75590399 heartbeat IPC: 1.48531 cumulative IPC: 1.38192 (Simulation time: 0 hr 9 min 25 sec) 
Finished CPU 0 instructions: 100000000 cycles: 72362915 cumulative IPC: 1.38192 (Simulation time: 0 hr 9 min 25 sec) 

ChampSim completed all CPUs

Region of Interest Statistics

CPU 0 cumulative IPC: 1.38192 instructions: 100000000 cycles: 72362915
cpu0_DTLB TOTAL     ACCESS:   19669763  HIT:   18911083  MISS:     758680
cpu0_DTLB LOAD      ACCESS:   13809168  HIT:   13163461  MISS:     645707
cpu0_DTLB RFO       ACCESS:    5860595  HIT:    5747622  MISS:     112973
cpu0_DTLB PREFETCH  ACCESS:          0  HIT:          0  MISS:          0
cpu0_DTLB WRITEBACK ACCESS:          0  HIT:          0  MISS:          0
cpu0_DTLB TRANSLATION ACCESS:          0  HIT:          0  MISS:          0
cpu0_DTLB PREFETCH  REQUESTED:          0  ISSUED:          0  USEFUL:          0  USELESS:          0
cpu0_DTLB AVERAGE MISS LATENCY: 9.33222 cycles
cpu0_ITLB TOTAL     ACCESS:    6428340  HIT:    6428326  MISS:         14
cpu0_ITLB LOAD      ACCESS:    6428340  HIT:    6428326  MISS:         14
cpu0_ITLB RFO       ACCESS:          0  HIT:          0  MISS:          0
cpu0_ITLB PREFETCH  ACCESS:          0  HIT:          0  MISS:          0
cpu0_ITLB WRITEBACK ACCESS:          0  HIT:          0  MISS:          0
cpu0_ITLB TRANSLATION ACCESS:          0  HIT:          0  MISS:          0
cpu0_ITLB PREFETCH  REQUESTED:          0  ISSUED:          0  USEFUL:          0  USELESS:          0
cpu0_ITLB AVERAGE MISS LATENCY: 222.429 cycles
cpu0_L1I TOTAL     ACCESS:    2685541  HIT:    2685187  MISS:        354
cpu0_L1I LOAD      ACCESS:    2685541  HIT:    2685187  MISS:        354
cpu0_L1I RFO       ACCESS:          0  HIT:          0  MISS:          0
cpu0_L1I PREFETCH  ACCESS:          0  HIT:          0  MISS:          0
cpu0_L1I WRITEBACK ACCESS:          0  HIT:          0  MISS:          0
cpu0_L1I TRANSLATION ACCESS:          0  HIT:          0  MISS:          0
cpu0_L1I PREFETCH  REQUESTED:          0  ISSUED:          0  USEFUL:          0  USELESS:          0
cpu0_L1I AVERAGE MISS LATENCY: 168.24 cycles
cpu0_STLB TOTAL     ACCESS:     758694  HIT:     757612  MISS:       1082
cpu0_STLB LOAD      ACCESS:     645721  HIT:     644814  MISS:        907
cpu0_STLB RFO       ACCESS:     112973  HIT:     112798  MISS:        175
cpu0_STLB PREFETCH  ACCESS:          0  HIT:          0  MISS:          0
cpu0_STLB WRITEBACK ACCESS:          0  HIT:          0  MISS:          0
cpu0_STLB TRANSLATION ACCESS:          0  HIT:          0  MISS:          0
cpu0_STLB PREFETCH  REQUESTED:          0  ISSUED:          0  USEFUL:          0  USELESS:          0
cpu0_STLB AVERAGE MISS LATENCY: 204.451 cycles
cpu0_L1D TOTAL     ACCESS:   23618929  HIT:   22019624  MISS:    1599305
cpu0_L1D LOAD      ACCESS:   13843378  HIT:   12450391  MISS:    1392987
cpu0_L1D RFO       ACCESS:    9774483  HIT:    9568670  MISS:     205813
cpu0_L1D PREFETCH  ACCESS:          0  HIT:          0  MISS:          0
cpu0_L1D WRITEBACK ACCESS:          0  HIT:          0  MISS:          0
cpu0_L1D TRANSLATION ACCESS:       1068  HIT:        563  MISS:        505
cpu0_L1D PREFETCH  REQUESTED:          0  ISSUED:          0  USEFUL:          0  USELESS:          0
cpu0_L1D AVERAGE MISS LATENCY: 87.8944 cycles
cpu0_L2C TOTAL     ACCESS:    1813977  HIT:     912041  MISS:     901936
cpu0_L2C LOAD      ACCESS:    1393337  HIT:     649135  MISS:     744202
cpu0_L2C RFO       ACCESS:     205802  HIT:      48294  MISS:     157508
cpu0_L2C PREFETCH  ACCESS:          0  HIT:          0  MISS:          0
cpu0_L2C WRITEBACK ACCESS:     214333  HIT:     214137  MISS:        196
cpu0_L2C TRANSLATION ACCESS:        505  HIT:        475  MISS:         30
cpu0_L2C PREFETCH  REQUESTED:          0  ISSUED:          0  USEFUL:          0  USELESS:          0
cpu0_L2C AVERAGE MISS LATENCY: 136.273 cycles
LLC TOTAL     ACCESS:    1060184  HIT:     838671  MISS:     221513
LLC LOAD      ACCESS:     744201  HIT:     612769  MISS:     131432
LLC RFO       ACCESS:     157493  HIT:      86434  MISS:      71059
LLC PREFETCH  ACCESS:          0  HIT:          0  MISS:          0
LLC WRITEBACK ACCESS:     158460  HIT:     139445  MISS:      19015
LLC TRANSLATION ACCESS:         30  HIT:         23  MISS:          7
LLC PREFETCH  REQUESTED:          0  ISSUED:          0  USEFUL:          0  USELESS:          0
LLC AVERAGE MISS LATENCY: 469.364 cycles

DRAM Statistics
 CHANNEL 0
 RQ ROW_BUFFER_HIT:      58274  ROW_BUFFER_MISS:     143921
 DBUS AVG_CONGESTED_CYCLE:    3.98555
 WQ ROW_BUFFER_HIT:       4762  ROW_BUFFER_MISS:      82810  FULL:          0


CPU 0 Branch Prediction Accuracy: 91.2056% MPKI: 12.1715 Average ROB Occupancy at Mispredict: 67.8979
Branch type MPKI
BRANCH_DIRECT_JUMP: 0.00059
BRANCH_INDIRECT: 0
BRANCH_CONDITIONAL: 12.1706
BRANCH_DIRECT_CALL: 0.00014
BRANCH_INDIRECT_CALL: 0
BRANCH_RETURN: 0.00019

