
*** ChampSim Multicore Out-of-Order Simulator ***

Warmup Instructions: 10000000
Simulation Instructions: 100000000
Number of CPUs: 1
Off-chip DRAM Size: 4 GiB Channels: 1 Width: 64-bit Data Rate: 3200 MT/s

VirtualMemory physical capacity: 8588881920 num_ppages: 2096895
VirtualMemory page size: 4096 log2_page_size: 12

CPU 0 runs /datasets/cs240c-wi22-a00-public/data/Assignment2/cactusADM_1495B.trace.xz
CPU 0 Bimodal branch predictor
Basic BTB sets: 1024 ways: 8 indirect buffer size: 4096 RAS size: 64
5th iteration
No hysteresis, common rrpv
Initialize Hawkeye state
Initialize SRRIP state
Heartbeat CPU 0 instructions: 10000001 cycles: 3702091 heartbeat IPC: 2.70118 cumulative IPC: 2.70118 (Simulation time: 0 hr 1 min 17 sec) 

Warmup complete CPU 0 instructions: 10000001 cycles: 3702091 (Simulation time: 0 hr 1 min 17 sec) 

Heartbeat CPU 0 instructions: 20000003 cycles: 10840325 heartbeat IPC: 1.40091 cumulative IPC: 1.40091 (Simulation time: 0 hr 3 min 13 sec) 
Heartbeat CPU 0 instructions: 30000003 cycles: 19849138 heartbeat IPC: 1.11002 cumulative IPC: 1.23862 (Simulation time: 0 hr 5 min 14 sec) 
Heartbeat CPU 0 instructions: 40000001 cycles: 29010197 heartbeat IPC: 1.09158 cumulative IPC: 1.18539 (Simulation time: 0 hr 6 min 58 sec) 
Heartbeat CPU 0 instructions: 50000000 cycles: 37677651 heartbeat IPC: 1.15374 cumulative IPC: 1.17732 (Simulation time: 0 hr 8 min 15 sec) 
Heartbeat CPU 0 instructions: 60000000 cycles: 44644391 heartbeat IPC: 1.43539 cumulative IPC: 1.22123 (Simulation time: 0 hr 9 min 12 sec) 
Heartbeat CPU 0 instructions: 70000000 cycles: 52708556 heartbeat IPC: 1.24005 cumulative IPC: 1.22433 (Simulation time: 0 hr 10 min 14 sec) 
Heartbeat CPU 0 instructions: 80000001 cycles: 61237546 heartbeat IPC: 1.17247 cumulative IPC: 1.21664 (Simulation time: 0 hr 11 min 16 sec) 
Heartbeat CPU 0 instructions: 90000002 cycles: 69961035 heartbeat IPC: 1.14633 cumulative IPC: 1.20738 (Simulation time: 0 hr 12 min 20 sec) 
Heartbeat CPU 0 instructions: 100000003 cycles: 78517491 heartbeat IPC: 1.16871 cumulative IPC: 1.20296 (Simulation time: 0 hr 13 min 23 sec) 
Heartbeat CPU 0 instructions: 110000004 cycles: 84524930 heartbeat IPC: 1.6646 cumulative IPC: 1.23727 (Simulation time: 0 hr 14 min 17 sec) 
Finished CPU 0 instructions: 100000003 cycles: 80822839 cumulative IPC: 1.23727 (Simulation time: 0 hr 14 min 17 sec) 

ChampSim completed all CPUs

Region of Interest Statistics

CPU 0 cumulative IPC: 1.23727 instructions: 100000003 cycles: 80822839
cpu0_DTLB TOTAL     ACCESS:   21501794  HIT:   19729173  MISS:    1772621
cpu0_DTLB LOAD      ACCESS:   17685848  HIT:   16476438  MISS:    1209410
cpu0_DTLB RFO       ACCESS:    3815946  HIT:    3252735  MISS:     563211
cpu0_DTLB PREFETCH  ACCESS:          0  HIT:          0  MISS:          0
cpu0_DTLB WRITEBACK ACCESS:          0  HIT:          0  MISS:          0
cpu0_DTLB TRANSLATION ACCESS:          0  HIT:          0  MISS:          0
cpu0_DTLB PREFETCH  REQUESTED:          0  ISSUED:          0  USEFUL:          0  USELESS:          0
cpu0_DTLB AVERAGE MISS LATENCY: 16.6695 cycles
cpu0_ITLB TOTAL     ACCESS:    1614698  HIT:    1614698  MISS:          0
cpu0_ITLB LOAD      ACCESS:    1614698  HIT:    1614698  MISS:          0
cpu0_ITLB RFO       ACCESS:          0  HIT:          0  MISS:          0
cpu0_ITLB PREFETCH  ACCESS:          0  HIT:          0  MISS:          0
cpu0_ITLB WRITEBACK ACCESS:          0  HIT:          0  MISS:          0
cpu0_ITLB TRANSLATION ACCESS:          0  HIT:          0  MISS:          0
cpu0_ITLB PREFETCH  REQUESTED:          0  ISSUED:          0  USEFUL:          0  USELESS:          0
cpu0_ITLB AVERAGE MISS LATENCY: -nan cycles
cpu0_L1I TOTAL     ACCESS:    8434913  HIT:    8434913  MISS:          0
cpu0_L1I LOAD      ACCESS:    8434913  HIT:    8434913  MISS:          0
cpu0_L1I RFO       ACCESS:          0  HIT:          0  MISS:          0
cpu0_L1I PREFETCH  ACCESS:          0  HIT:          0  MISS:          0
cpu0_L1I WRITEBACK ACCESS:          0  HIT:          0  MISS:          0
cpu0_L1I TRANSLATION ACCESS:          0  HIT:          0  MISS:          0
cpu0_L1I PREFETCH  REQUESTED:          0  ISSUED:          0  USEFUL:          0  USELESS:          0
cpu0_L1I AVERAGE MISS LATENCY: -nan cycles
cpu0_STLB TOTAL     ACCESS:    1772621  HIT:     906588  MISS:     866033
cpu0_STLB LOAD      ACCESS:    1209410  HIT:     648993  MISS:     560417
cpu0_STLB RFO       ACCESS:     563211  HIT:     257595  MISS:     305616
cpu0_STLB PREFETCH  ACCESS:          0  HIT:          0  MISS:          0
cpu0_STLB WRITEBACK ACCESS:          0  HIT:          0  MISS:          0
cpu0_STLB TRANSLATION ACCESS:          0  HIT:          0  MISS:          0
cpu0_STLB PREFETCH  REQUESTED:          0  ISSUED:          0  USEFUL:          0  USELESS:          0
cpu0_STLB AVERAGE MISS LATENCY: 15.5749 cycles
cpu0_L1D TOTAL     ACCESS:   37500649  HIT:   36212493  MISS:    1288156
cpu0_L1D LOAD      ACCESS:   25708318  HIT:   24672326  MISS:    1035992
cpu0_L1D RFO       ACCESS:   10926961  HIT:   10681729  MISS:     245232
cpu0_L1D PREFETCH  ACCESS:          0  HIT:          0  MISS:          0
cpu0_L1D WRITEBACK ACCESS:          0  HIT:          0  MISS:          0
cpu0_L1D TRANSLATION ACCESS:     865370  HIT:     858438  MISS:       6932
cpu0_L1D PREFETCH  REQUESTED:          0  ISSUED:          0  USEFUL:          0  USELESS:          0
cpu0_L1D AVERAGE MISS LATENCY: 279.854 cycles
cpu0_L2C TOTAL     ACCESS:    1536938  HIT:     676784  MISS:     860154
cpu0_L2C LOAD      ACCESS:    1035992  HIT:     421571  MISS:     614421
cpu0_L2C RFO       ACCESS:     245232  HIT:          0  MISS:     245232
cpu0_L2C PREFETCH  ACCESS:          0  HIT:          0  MISS:          0
cpu0_L2C WRITEBACK ACCESS:     248782  HIT:     248594  MISS:        188
cpu0_L2C TRANSLATION ACCESS:       6932  HIT:       6619  MISS:        313
cpu0_L2C PREFETCH  REQUESTED:          0  ISSUED:          0  USEFUL:          0  USELESS:          0
cpu0_L2C AVERAGE MISS LATENCY: 402.613 cycles
LLC TOTAL     ACCESS:    1105574  HIT:     332347  MISS:     773227
LLC LOAD      ACCESS:     614421  HIT:     168769  MISS:     445652
LLC RFO       ACCESS:     245232  HIT:      69169  MISS:     176063
LLC PREFETCH  ACCESS:          0  HIT:          0  MISS:          0
LLC WRITEBACK ACCESS:     245608  HIT:      94350  MISS:     151258
LLC TRANSLATION ACCESS:        313  HIT:         59  MISS:        254
LLC PREFETCH  REQUESTED:          0  ISSUED:          0  USEFUL:          0  USELESS:          0
LLC AVERAGE MISS LATENCY: 424.518 cycles

DRAM Statistics
 CHANNEL 0
 RQ ROW_BUFFER_HIT:       5639  ROW_BUFFER_MISS:     616322
 DBUS AVG_CONGESTED_CYCLE:    3.97624
 WQ ROW_BUFFER_HIT:      16572  ROW_BUFFER_MISS:     192186  FULL:        768


CPU 0 Branch Prediction Accuracy: 97.8411% MPKI: 0.04284 Average ROB Occupancy at Mispredict: 285.545
Branch type MPKI
BRANCH_DIRECT_JUMP: 0
BRANCH_INDIRECT: 0
BRANCH_CONDITIONAL: 0.04284
BRANCH_DIRECT_CALL: 0
BRANCH_INDIRECT_CALL: 0
BRANCH_RETURN: 0

