
*** ChampSim Multicore Out-of-Order Simulator ***

Warmup Instructions: 10000000
Simulation Instructions: 100000000
Number of CPUs: 1
Off-chip DRAM Size: 4 GiB Channels: 1 Width: 64-bit Data Rate: 3200 MT/s

VirtualMemory physical capacity: 8588881920 num_ppages: 2096895
VirtualMemory page size: 4096 log2_page_size: 12

CPU 0 runs /datasets/cs240c-wi22-a00-public/data/Assignment2/hmmer_397B.trace.xz
CPU 0 Bimodal branch predictor
Basic BTB sets: 1024 ways: 8 indirect buffer size: 4096 RAS size: 64
5th iteration
No hysteresis, common rrpv
Initialize Hawkeye state
Initialize SRRIP state
Heartbeat CPU 0 instructions: 10000000 cycles: 3996187 heartbeat IPC: 2.50239 cumulative IPC: 2.50239 (Simulation time: 0 hr 0 min 39 sec) 

Warmup complete CPU 0 instructions: 10000005 cycles: 3996190 (Simulation time: 0 hr 0 min 39 sec) 

Heartbeat CPU 0 instructions: 20000002 cycles: 9226580 heartbeat IPC: 1.9119 cumulative IPC: 1.9119 (Simulation time: 0 hr 1 min 32 sec) 
Heartbeat CPU 0 instructions: 30000003 cycles: 14147686 heartbeat IPC: 2.03206 cumulative IPC: 1.97015 (Simulation time: 0 hr 2 min 25 sec) 
Heartbeat CPU 0 instructions: 40000003 cycles: 18990454 heartbeat IPC: 2.06493 cumulative IPC: 2.00076 (Simulation time: 0 hr 3 min 18 sec) 
Heartbeat CPU 0 instructions: 50000001 cycles: 24087432 heartbeat IPC: 1.96195 cumulative IPC: 1.99092 (Simulation time: 0 hr 4 min 11 sec) 
Heartbeat CPU 0 instructions: 60000002 cycles: 28933806 heartbeat IPC: 2.0634 cumulative IPC: 2.005 (Simulation time: 0 hr 5 min 4 sec) 
Heartbeat CPU 0 instructions: 70000004 cycles: 33503462 heartbeat IPC: 2.18835 cumulative IPC: 2.0334 (Simulation time: 0 hr 5 min 55 sec) 
Heartbeat CPU 0 instructions: 80000000 cycles: 37870711 heartbeat IPC: 2.28977 cumulative IPC: 2.06645 (Simulation time: 0 hr 6 min 45 sec) 
Heartbeat CPU 0 instructions: 90000004 cycles: 42231931 heartbeat IPC: 2.29294 cumulative IPC: 2.09228 (Simulation time: 0 hr 7 min 35 sec) 
Heartbeat CPU 0 instructions: 100000003 cycles: 46567773 heartbeat IPC: 2.30636 cumulative IPC: 2.11409 (Simulation time: 0 hr 8 min 25 sec) 
Heartbeat CPU 0 instructions: 110000001 cycles: 50915139 heartbeat IPC: 2.30024 cumulative IPC: 2.13134 (Simulation time: 0 hr 9 min 14 sec) 
Finished CPU 0 instructions: 100000001 cycles: 46918950 cumulative IPC: 2.13134 (Simulation time: 0 hr 9 min 14 sec) 

ChampSim completed all CPUs

Region of Interest Statistics

CPU 0 cumulative IPC: 2.13134 instructions: 100000001 cycles: 46918950
cpu0_DTLB TOTAL     ACCESS:   40464782  HIT:   40456830  MISS:       7952
cpu0_DTLB LOAD      ACCESS:   32301680  HIT:   32298810  MISS:       2870
cpu0_DTLB RFO       ACCESS:    8163102  HIT:    8158020  MISS:       5082
cpu0_DTLB PREFETCH  ACCESS:          0  HIT:          0  MISS:          0
cpu0_DTLB WRITEBACK ACCESS:          0  HIT:          0  MISS:          0
cpu0_DTLB TRANSLATION ACCESS:          0  HIT:          0  MISS:          0
cpu0_DTLB PREFETCH  REQUESTED:          0  ISSUED:          0  USEFUL:          0  USELESS:          0
cpu0_DTLB AVERAGE MISS LATENCY: 25.0253 cycles
cpu0_ITLB TOTAL     ACCESS:     800310  HIT:     800203  MISS:        107
cpu0_ITLB LOAD      ACCESS:     800310  HIT:     800203  MISS:        107
cpu0_ITLB RFO       ACCESS:          0  HIT:          0  MISS:          0
cpu0_ITLB PREFETCH  ACCESS:          0  HIT:          0  MISS:          0
cpu0_ITLB WRITEBACK ACCESS:          0  HIT:          0  MISS:          0
cpu0_ITLB TRANSLATION ACCESS:          0  HIT:          0  MISS:          0
cpu0_ITLB PREFETCH  REQUESTED:          0  ISSUED:          0  USEFUL:          0  USELESS:          0
cpu0_ITLB AVERAGE MISS LATENCY: 79.271 cycles
cpu0_L1I TOTAL     ACCESS:      64496  HIT:      64160  MISS:        336
cpu0_L1I LOAD      ACCESS:      64496  HIT:      64160  MISS:        336
cpu0_L1I RFO       ACCESS:          0  HIT:          0  MISS:          0
cpu0_L1I PREFETCH  ACCESS:          0  HIT:          0  MISS:          0
cpu0_L1I WRITEBACK ACCESS:          0  HIT:          0  MISS:          0
cpu0_L1I TRANSLATION ACCESS:          0  HIT:          0  MISS:          0
cpu0_L1I PREFETCH  REQUESTED:          0  ISSUED:          0  USEFUL:          0  USELESS:          0
cpu0_L1I AVERAGE MISS LATENCY: 313.929 cycles
cpu0_STLB TOTAL     ACCESS:       8059  HIT:       7279  MISS:        780
cpu0_STLB LOAD      ACCESS:       2977  HIT:       2810  MISS:        167
cpu0_STLB RFO       ACCESS:       5082  HIT:       4469  MISS:        613
cpu0_STLB PREFETCH  ACCESS:          0  HIT:          0  MISS:          0
cpu0_STLB WRITEBACK ACCESS:          0  HIT:          0  MISS:          0
cpu0_STLB TRANSLATION ACCESS:          0  HIT:          0  MISS:          0
cpu0_STLB PREFETCH  REQUESTED:          0  ISSUED:          0  USEFUL:          0  USELESS:          0
cpu0_STLB AVERAGE MISS LATENCY: 172.923 cycles
cpu0_L1D TOTAL     ACCESS:   32732705  HIT:   32266998  MISS:     465707
cpu0_L1D LOAD      ACCESS:   28660257  HIT:   28503722  MISS:     156535
cpu0_L1D RFO       ACCESS:    4071677  HIT:    3762692  MISS:     308985
cpu0_L1D PREFETCH  ACCESS:          0  HIT:          0  MISS:          0
cpu0_L1D WRITEBACK ACCESS:          0  HIT:          0  MISS:          0
cpu0_L1D TRANSLATION ACCESS:        771  HIT:        584  MISS:        187
cpu0_L1D PREFETCH  REQUESTED:          0  ISSUED:          0  USEFUL:          0  USELESS:          0
cpu0_L1D AVERAGE MISS LATENCY: 328.707 cycles
cpu0_L2C TOTAL     ACCESS:     772817  HIT:     485627  MISS:     287190
cpu0_L2C LOAD      ACCESS:     156871  HIT:     142188  MISS:      14683
cpu0_L2C RFO       ACCESS:     308985  HIT:      36532  MISS:     272453
cpu0_L2C PREFETCH  ACCESS:          0  HIT:          0  MISS:          0
cpu0_L2C WRITEBACK ACCESS:     306774  HIT:     306737  MISS:         37
cpu0_L2C TRANSLATION ACCESS:        187  HIT:        170  MISS:         17
cpu0_L2C PREFETCH  REQUESTED:          0  ISSUED:          0  USEFUL:          0  USELESS:          0
cpu0_L2C AVERAGE MISS LATENCY: 515.535 cycles
LLC TOTAL     ACCESS:     557995  HIT:     343475  MISS:     214520
LLC LOAD      ACCESS:      14683  HIT:      11012  MISS:       3671
LLC RFO       ACCESS:     272306  HIT:     138286  MISS:     134020
LLC PREFETCH  ACCESS:          0  HIT:          0  MISS:          0
LLC WRITEBACK ACCESS:     270989  HIT:     194166  MISS:      76823
LLC TRANSLATION ACCESS:         17  HIT:         11  MISS:          6
LLC PREFETCH  REQUESTED:          0  ISSUED:          0  USEFUL:          0  USELESS:          0
LLC AVERAGE MISS LATENCY: 662.078 cycles

DRAM Statistics
 CHANNEL 0
 RQ ROW_BUFFER_HIT:       1857  ROW_BUFFER_MISS:     135838
 DBUS AVG_CONGESTED_CYCLE:    3.99389
 WQ ROW_BUFFER_HIT:       8660  ROW_BUFFER_MISS:     126526  FULL:       1741


CPU 0 Branch Prediction Accuracy: 98.9257% MPKI: 0.41399 Average ROB Occupancy at Mispredict: 249.908
Branch type MPKI
BRANCH_DIRECT_JUMP: 0.00081
BRANCH_INDIRECT: 0.00176
BRANCH_CONDITIONAL: 0.40978
BRANCH_DIRECT_CALL: 0.00081
BRANCH_INDIRECT_CALL: 2e-05
BRANCH_RETURN: 0.00081

