
*** ChampSim Multicore Out-of-Order Simulator ***

Warmup Instructions: 10000000
Simulation Instructions: 100000000
Number of CPUs: 1
Off-chip DRAM Size: 4 GiB Channels: 1 Width: 64-bit Data Rate: 3200 MT/s

VirtualMemory physical capacity: 8588881920 num_ppages: 2096895
VirtualMemory page size: 4096 log2_page_size: 12

CPU 0 runs /datasets/cs240c-wi22-a00-public/data/Assignment2/lbm_1004B.trace.xz
CPU 0 Bimodal branch predictor
Basic BTB sets: 1024 ways: 8 indirect buffer size: 4096 RAS size: 64
5th iteration
No hysteresis, common rrpv
Initialize Hawkeye state
Initialize SRRIP state
Heartbeat CPU 0 instructions: 10000003 cycles: 2504744 heartbeat IPC: 3.99243 cumulative IPC: 3.99243 (Simulation time: 0 hr 0 min 19 sec) 

Warmup complete CPU 0 instructions: 10000003 cycles: 2504744 (Simulation time: 0 hr 0 min 19 sec) 

Heartbeat CPU 0 instructions: 20000004 cycles: 33925061 heartbeat IPC: 0.318265 cumulative IPC: 0.318265 (Simulation time: 0 hr 1 min 55 sec) 
Heartbeat CPU 0 instructions: 30000004 cycles: 68062545 heartbeat IPC: 0.292933 cumulative IPC: 0.305074 (Simulation time: 0 hr 3 min 37 sec) 
Heartbeat CPU 0 instructions: 40000004 cycles: 98570885 heartbeat IPC: 0.327779 cumulative IPC: 0.312285 (Simulation time: 0 hr 5 min 9 sec) 
Heartbeat CPU 0 instructions: 50000004 cycles: 130083582 heartbeat IPC: 0.317332 cumulative IPC: 0.313532 (Simulation time: 0 hr 6 min 44 sec) 
Heartbeat CPU 0 instructions: 60000004 cycles: 163723785 heartbeat IPC: 0.297263 cumulative IPC: 0.310137 (Simulation time: 0 hr 8 min 23 sec) 
Heartbeat CPU 0 instructions: 70000001 cycles: 198776014 heartbeat IPC: 0.285288 cumulative IPC: 0.305699 (Simulation time: 0 hr 10 min 6 sec) 
Heartbeat CPU 0 instructions: 80000000 cycles: 257881490 heartbeat IPC: 0.169189 cumulative IPC: 0.274105 (Simulation time: 0 hr 13 min 35 sec) 
Heartbeat CPU 0 instructions: 90000003 cycles: 292145802 heartbeat IPC: 0.291849 cumulative IPC: 0.276204 (Simulation time: 0 hr 15 min 17 sec) 
Heartbeat CPU 0 instructions: 100000000 cycles: 326178078 heartbeat IPC: 0.293839 cumulative IPC: 0.278058 (Simulation time: 0 hr 16 min 58 sec) 
Heartbeat CPU 0 instructions: 110000003 cycles: 361300382 heartbeat IPC: 0.284719 cumulative IPC: 0.27871 (Simulation time: 0 hr 18 min 42 sec) 
Finished CPU 0 instructions: 100000000 cycles: 358795638 cumulative IPC: 0.27871 (Simulation time: 0 hr 18 min 42 sec) 

ChampSim completed all CPUs

Region of Interest Statistics

CPU 0 cumulative IPC: 0.27871 instructions: 100000000 cycles: 358795638
cpu0_DTLB TOTAL     ACCESS:   13661335  HIT:   13610885  MISS:      50450
cpu0_DTLB LOAD      ACCESS:    6954202  HIT:    6941583  MISS:      12619
cpu0_DTLB RFO       ACCESS:    6707133  HIT:    6669302  MISS:      37831
cpu0_DTLB PREFETCH  ACCESS:          0  HIT:          0  MISS:          0
cpu0_DTLB WRITEBACK ACCESS:          0  HIT:          0  MISS:          0
cpu0_DTLB TRANSLATION ACCESS:          0  HIT:          0  MISS:          0
cpu0_DTLB PREFETCH  REQUESTED:          0  ISSUED:          0  USEFUL:          0  USELESS:          0
cpu0_DTLB AVERAGE MISS LATENCY: 367.765 cycles
cpu0_ITLB TOTAL     ACCESS:     118867  HIT:     118866  MISS:          1
cpu0_ITLB LOAD      ACCESS:     118867  HIT:     118866  MISS:          1
cpu0_ITLB RFO       ACCESS:          0  HIT:          0  MISS:          0
cpu0_ITLB PREFETCH  ACCESS:          0  HIT:          0  MISS:          0
cpu0_ITLB WRITEBACK ACCESS:          0  HIT:          0  MISS:          0
cpu0_ITLB TRANSLATION ACCESS:          0  HIT:          0  MISS:          0
cpu0_ITLB PREFETCH  REQUESTED:          0  ISSUED:          0  USEFUL:          0  USELESS:          0
cpu0_ITLB AVERAGE MISS LATENCY: 847 cycles
cpu0_L1I TOTAL     ACCESS:         12  HIT:          6  MISS:          6
cpu0_L1I LOAD      ACCESS:         12  HIT:          6  MISS:          6
cpu0_L1I RFO       ACCESS:          0  HIT:          0  MISS:          0
cpu0_L1I PREFETCH  ACCESS:          0  HIT:          0  MISS:          0
cpu0_L1I WRITEBACK ACCESS:          0  HIT:          0  MISS:          0
cpu0_L1I TRANSLATION ACCESS:          0  HIT:          0  MISS:          0
cpu0_L1I PREFETCH  REQUESTED:          0  ISSUED:          0  USEFUL:          0  USELESS:          0
cpu0_L1I AVERAGE MISS LATENCY: 358.167 cycles
cpu0_STLB TOTAL     ACCESS:      50451  HIT:          5  MISS:      50446
cpu0_STLB LOAD      ACCESS:      12620  HIT:          0  MISS:      12620
cpu0_STLB RFO       ACCESS:      37831  HIT:          5  MISS:      37826
cpu0_STLB PREFETCH  ACCESS:          0  HIT:          0  MISS:          0
cpu0_STLB WRITEBACK ACCESS:          0  HIT:          0  MISS:          0
cpu0_STLB TRANSLATION ACCESS:          0  HIT:          0  MISS:          0
cpu0_STLB PREFETCH  REQUESTED:          0  ISSUED:          0  USEFUL:          0  USELESS:          0
cpu0_STLB AVERAGE MISS LATENCY: 358.81 cycles
cpu0_L1D TOTAL     ACCESS:   15131995  HIT:    9811469  MISS:    5320526
cpu0_L1D LOAD      ACCESS:    4357160  HIT:    3550797  MISS:     806363
cpu0_L1D RFO       ACCESS:   10724405  HIT:    6210291  MISS:    4514114
cpu0_L1D PREFETCH  ACCESS:          0  HIT:          0  MISS:          0
cpu0_L1D WRITEBACK ACCESS:          0  HIT:          0  MISS:          0
cpu0_L1D TRANSLATION ACCESS:      50430  HIT:      50381  MISS:         49
cpu0_L1D PREFETCH  REQUESTED:          0  ISSUED:          0  USEFUL:          0  USELESS:          0
cpu0_L1D AVERAGE MISS LATENCY: 494.671 cycles
cpu0_L2C TOTAL     ACCESS:    9834648  HIT:    6608159  MISS:    3226489
cpu0_L2C LOAD      ACCESS:     806369  HIT:        193  MISS:     806176
cpu0_L2C RFO       ACCESS:    4514114  HIT:    2093943  MISS:    2420171
cpu0_L2C PREFETCH  ACCESS:          0  HIT:          0  MISS:          0
cpu0_L2C WRITEBACK ACCESS:    4514116  HIT:    4514023  MISS:         93
cpu0_L2C TRANSLATION ACCESS:         49  HIT:          0  MISS:         49
cpu0_L2C PREFETCH  REQUESTED:          0  ISSUED:          0  USEFUL:          0  USELESS:          0
cpu0_L2C AVERAGE MISS LATENCY: 796.212 cycles
LLC TOTAL     ACCESS:    5646897  HIT:    1230687  MISS:    4416210
LLC LOAD      ACCESS:     806176  HIT:         50  MISS:     806126
LLC RFO       ACCESS:    2420171  HIT:     363055  MISS:    2057116
LLC PREFETCH  ACCESS:          0  HIT:          0  MISS:          0
LLC WRITEBACK ACCESS:    2420501  HIT:     867566  MISS:    1552935
LLC TRANSLATION ACCESS:         49  HIT:         16  MISS:         33
LLC PREFETCH  REQUESTED:          0  ISSUED:          0  USEFUL:          0  USELESS:          0
LLC AVERAGE MISS LATENCY: 566.371 cycles

DRAM Statistics
 CHANNEL 0
 RQ ROW_BUFFER_HIT:      43576  ROW_BUFFER_MISS:    2819504
 DBUS AVG_CONGESTED_CYCLE:    3.99702
 WQ ROW_BUFFER_HIT:      23583  ROW_BUFFER_MISS:    2080683  FULL:          0


CPU 0 Branch Prediction Accuracy: 99.2476% MPKI: 0.09355 Average ROB Occupancy at Mispredict: 169.766
Branch type MPKI
BRANCH_DIRECT_JUMP: 2e-05
BRANCH_INDIRECT: 0
BRANCH_CONDITIONAL: 0.09349
BRANCH_DIRECT_CALL: 2e-05
BRANCH_INDIRECT_CALL: 0
BRANCH_RETURN: 2e-05

