
*** ChampSim Multicore Out-of-Order Simulator ***

Warmup Instructions: 10000000
Simulation Instructions: 100000000
Number of CPUs: 1
Off-chip DRAM Size: 4 GiB Channels: 1 Width: 64-bit Data Rate: 3200 MT/s

VirtualMemory physical capacity: 8588881920 num_ppages: 2096895
VirtualMemory page size: 4096 log2_page_size: 12

CPU 0 runs /datasets/cs240c-wi22-a00-public/data/Assignment2/leslie3d_1116B.trace.xz
CPU 0 Bimodal branch predictor
Basic BTB sets: 1024 ways: 8 indirect buffer size: 4096 RAS size: 64
5th iteration
No hysteresis, common rrpv
Initialize Hawkeye state
Initialize SRRIP state
Heartbeat CPU 0 instructions: 10000000 cycles: 3692438 heartbeat IPC: 2.70824 cumulative IPC: 2.70824 (Simulation time: 0 hr 0 min 36 sec) 

Warmup complete CPU 0 instructions: 10000005 cycles: 3692439 (Simulation time: 0 hr 0 min 36 sec) 

Heartbeat CPU 0 instructions: 20000000 cycles: 13387112 heartbeat IPC: 1.03149 cumulative IPC: 1.03149 (Simulation time: 0 hr 1 min 40 sec) 
Heartbeat CPU 0 instructions: 30000004 cycles: 22580219 heartbeat IPC: 1.08777 cumulative IPC: 1.05889 (Simulation time: 0 hr 2 min 41 sec) 
Heartbeat CPU 0 instructions: 40000004 cycles: 34394474 heartbeat IPC: 0.846435 cumulative IPC: 0.977134 (Simulation time: 0 hr 3 min 51 sec) 
Heartbeat CPU 0 instructions: 50000000 cycles: 56193941 heartbeat IPC: 0.458727 cumulative IPC: 0.761883 (Simulation time: 0 hr 5 min 36 sec) 
Heartbeat CPU 0 instructions: 60000001 cycles: 108159157 heartbeat IPC: 0.192436 cumulative IPC: 0.478621 (Simulation time: 0 hr 9 min 8 sec) 
Heartbeat CPU 0 instructions: 70000000 cycles: 122859288 heartbeat IPC: 0.680266 cumulative IPC: 0.503496 (Simulation time: 0 hr 10 min 30 sec) 
Heartbeat CPU 0 instructions: 80000001 cycles: 135416612 heartbeat IPC: 0.796348 cumulative IPC: 0.531413 (Simulation time: 0 hr 11 min 45 sec) 
Heartbeat CPU 0 instructions: 90000004 cycles: 148588562 heartbeat IPC: 0.759189 cumulative IPC: 0.55212 (Simulation time: 0 hr 13 min 1 sec) 
Heartbeat CPU 0 instructions: 100000002 cycles: 161072275 heartbeat IPC: 0.801044 cumulative IPC: 0.571865 (Simulation time: 0 hr 14 min 16 sec) 
Heartbeat CPU 0 instructions: 110000001 cycles: 178389908 heartbeat IPC: 0.577446 cumulative IPC: 0.572418 (Simulation time: 0 hr 15 min 43 sec) 
Finished CPU 0 instructions: 100000001 cycles: 174697470 cumulative IPC: 0.572418 (Simulation time: 0 hr 15 min 43 sec) 

ChampSim completed all CPUs

Region of Interest Statistics

CPU 0 cumulative IPC: 0.572418 instructions: 100000001 cycles: 174697470
cpu0_DTLB TOTAL     ACCESS:   25747329  HIT:   25681618  MISS:      65711
cpu0_DTLB LOAD      ACCESS:   21132628  HIT:   21080959  MISS:      51669
cpu0_DTLB RFO       ACCESS:    4614701  HIT:    4600659  MISS:      14042
cpu0_DTLB PREFETCH  ACCESS:          0  HIT:          0  MISS:          0
cpu0_DTLB WRITEBACK ACCESS:          0  HIT:          0  MISS:          0
cpu0_DTLB TRANSLATION ACCESS:          0  HIT:          0  MISS:          0
cpu0_DTLB PREFETCH  REQUESTED:          0  ISSUED:          0  USEFUL:          0  USELESS:          0
cpu0_DTLB AVERAGE MISS LATENCY: 83.509 cycles
cpu0_ITLB TOTAL     ACCESS:    2881277  HIT:    2881259  MISS:         18
cpu0_ITLB LOAD      ACCESS:    2881277  HIT:    2881259  MISS:         18
cpu0_ITLB RFO       ACCESS:          0  HIT:          0  MISS:          0
cpu0_ITLB PREFETCH  ACCESS:          0  HIT:          0  MISS:          0
cpu0_ITLB WRITEBACK ACCESS:          0  HIT:          0  MISS:          0
cpu0_ITLB TRANSLATION ACCESS:          0  HIT:          0  MISS:          0
cpu0_ITLB PREFETCH  REQUESTED:          0  ISSUED:          0  USEFUL:          0  USELESS:          0
cpu0_ITLB AVERAGE MISS LATENCY: 394.889 cycles
cpu0_L1I TOTAL     ACCESS:    1780848  HIT:    1780376  MISS:        472
cpu0_L1I LOAD      ACCESS:    1780848  HIT:    1780376  MISS:        472
cpu0_L1I RFO       ACCESS:          0  HIT:          0  MISS:          0
cpu0_L1I PREFETCH  ACCESS:          0  HIT:          0  MISS:          0
cpu0_L1I WRITEBACK ACCESS:          0  HIT:          0  MISS:          0
cpu0_L1I TRANSLATION ACCESS:          0  HIT:          0  MISS:          0
cpu0_L1I PREFETCH  REQUESTED:          0  ISSUED:          0  USEFUL:          0  USELESS:          0
cpu0_L1I AVERAGE MISS LATENCY: 359.07 cycles
cpu0_STLB TOTAL     ACCESS:      65729  HIT:      34105  MISS:      31624
cpu0_STLB LOAD      ACCESS:      51687  HIT:      28221  MISS:      23466
cpu0_STLB RFO       ACCESS:      14042  HIT:       5884  MISS:       8158
cpu0_STLB PREFETCH  ACCESS:          0  HIT:          0  MISS:          0
cpu0_STLB WRITEBACK ACCESS:          0  HIT:          0  MISS:          0
cpu0_STLB TRANSLATION ACCESS:          0  HIT:          0  MISS:          0
cpu0_STLB PREFETCH  REQUESTED:          0  ISSUED:          0  USEFUL:          0  USELESS:          0
cpu0_STLB AVERAGE MISS LATENCY: 155.028 cycles
cpu0_L1D TOTAL     ACCESS:   24580095  HIT:   21169867  MISS:    3410228
cpu0_L1D LOAD      ACCESS:   16426795  HIT:   13809622  MISS:    2617173
cpu0_L1D RFO       ACCESS:    8123965  HIT:    7334551  MISS:     789414
cpu0_L1D PREFETCH  ACCESS:          0  HIT:          0  MISS:          0
cpu0_L1D WRITEBACK ACCESS:          0  HIT:          0  MISS:          0
cpu0_L1D TRANSLATION ACCESS:      29335  HIT:      25694  MISS:       3641
cpu0_L1D PREFETCH  REQUESTED:          0  ISSUED:          0  USEFUL:          0  USELESS:          0
cpu0_L1D AVERAGE MISS LATENCY: 471.036 cycles
cpu0_L2C TOTAL     ACCESS:    4455150  HIT:    1718573  MISS:    2736577
cpu0_L2C LOAD      ACCESS:    2617593  HIT:     507759  MISS:    2109834
cpu0_L2C RFO       ACCESS:     789334  HIT:     162855  MISS:     626479
cpu0_L2C PREFETCH  ACCESS:          0  HIT:          0  MISS:          0
cpu0_L2C WRITEBACK ACCESS:    1044582  HIT:    1044416  MISS:        166
cpu0_L2C TRANSLATION ACCESS:       3641  HIT:       3543  MISS:         98
cpu0_L2C PREFETCH  REQUESTED:          0  ISSUED:          0  USEFUL:          0  USELESS:          0
cpu0_L2C AVERAGE MISS LATENCY: 573.311 cycles
LLC TOTAL     ACCESS:    3497127  HIT:     798901  MISS:    2698226
LLC LOAD      ACCESS:    2109834  HIT:     510703  MISS:    1599131
LLC RFO       ACCESS:     626479  HIT:     112617  MISS:     513862
LLC PREFETCH  ACCESS:          0  HIT:          0  MISS:          0
LLC WRITEBACK ACCESS:     760716  HIT:     175561  MISS:     585155
LLC TRANSLATION ACCESS:         98  HIT:         20  MISS:         78
LLC PREFETCH  REQUESTED:          0  ISSUED:          0  USEFUL:          0  USELESS:          0
LLC AVERAGE MISS LATENCY: 560.095 cycles

DRAM Statistics
 CHANNEL 0
 RQ ROW_BUFFER_HIT:     218892  ROW_BUFFER_MISS:    1893963
 DBUS AVG_CONGESTED_CYCLE:    3.95947
 WQ ROW_BUFFER_HIT:      62521  ROW_BUFFER_MISS:     593205  FULL:      36123


CPU 0 Branch Prediction Accuracy: 96.8713% MPKI: 1.55303 Average ROB Occupancy at Mispredict: 298.055
Branch type MPKI
BRANCH_DIRECT_JUMP: 0.00018
BRANCH_INDIRECT: 0
BRANCH_CONDITIONAL: 1.55065
BRANCH_DIRECT_CALL: 0.00113
BRANCH_INDIRECT_CALL: 0
BRANCH_RETURN: 0.00107

