
*** ChampSim Multicore Out-of-Order Simulator ***

Warmup Instructions: 10000000
Simulation Instructions: 100000000
Number of CPUs: 1
Off-chip DRAM Size: 4 GiB Channels: 1 Width: 64-bit Data Rate: 3200 MT/s

VirtualMemory physical capacity: 8588881920 num_ppages: 2096895
VirtualMemory page size: 4096 log2_page_size: 12

CPU 0 runs /datasets/cs240c-wi22-a00-public/data/Assignment2/milc_360B.trace.xz
CPU 0 Bimodal branch predictor
Basic BTB sets: 1024 ways: 8 indirect buffer size: 4096 RAS size: 64
5th iteration
No hysteresis, common rrpv
Initialize Hawkeye state
Initialize SRRIP state
Heartbeat CPU 0 instructions: 10000001 cycles: 2500103 heartbeat IPC: 3.99984 cumulative IPC: 3.99984 (Simulation time: 0 hr 0 min 21 sec) 

Warmup complete CPU 0 instructions: 10000001 cycles: 2500103 (Simulation time: 0 hr 0 min 21 sec) 

Heartbeat CPU 0 instructions: 20000000 cycles: 20104512 heartbeat IPC: 0.568039 cumulative IPC: 0.568039 (Simulation time: 0 hr 1 min 36 sec) 
Heartbeat CPU 0 instructions: 30000004 cycles: 37644238 heartbeat IPC: 0.570135 cumulative IPC: 0.569085 (Simulation time: 0 hr 2 min 50 sec) 
Heartbeat CPU 0 instructions: 40000001 cycles: 55170651 heartbeat IPC: 0.570567 cumulative IPC: 0.569578 (Simulation time: 0 hr 4 min 4 sec) 
Heartbeat CPU 0 instructions: 50000001 cycles: 76213630 heartbeat IPC: 0.475218 cumulative IPC: 0.542641 (Simulation time: 0 hr 5 min 41 sec) 
Heartbeat CPU 0 instructions: 60000000 cycles: 94656671 heartbeat IPC: 0.54221 cumulative IPC: 0.542555 (Simulation time: 0 hr 6 min 52 sec) 
Heartbeat CPU 0 instructions: 70000000 cycles: 114781939 heartbeat IPC: 0.496888 cumulative IPC: 0.53437 (Simulation time: 0 hr 8 min 6 sec) 
Heartbeat CPU 0 instructions: 80000000 cycles: 131918859 heartbeat IPC: 0.583535 cumulative IPC: 0.54088 (Simulation time: 0 hr 9 min 15 sec) 
Heartbeat CPU 0 instructions: 90000000 cycles: 147847951 heartbeat IPC: 0.627782 cumulative IPC: 0.550404 (Simulation time: 0 hr 10 min 23 sec) 
Heartbeat CPU 0 instructions: 100000003 cycles: 163832176 heartbeat IPC: 0.625617 cumulative IPC: 0.557856 (Simulation time: 0 hr 11 min 30 sec) 
Heartbeat CPU 0 instructions: 110000003 cycles: 179904013 heartbeat IPC: 0.622206 cumulative IPC: 0.563685 (Simulation time: 0 hr 12 min 37 sec) 
Finished CPU 0 instructions: 100000002 cycles: 177403910 cumulative IPC: 0.563685 (Simulation time: 0 hr 12 min 37 sec) 

ChampSim completed all CPUs

Region of Interest Statistics

CPU 0 cumulative IPC: 0.563685 instructions: 100000002 cycles: 177403910
cpu0_DTLB TOTAL     ACCESS:   15522417  HIT:   15307676  MISS:     214741
cpu0_DTLB LOAD      ACCESS:    9080726  HIT:    8868199  MISS:     212527
cpu0_DTLB RFO       ACCESS:    6441691  HIT:    6439477  MISS:       2214
cpu0_DTLB PREFETCH  ACCESS:          0  HIT:          0  MISS:          0
cpu0_DTLB WRITEBACK ACCESS:          0  HIT:          0  MISS:          0
cpu0_DTLB TRANSLATION ACCESS:          0  HIT:          0  MISS:          0
cpu0_DTLB PREFETCH  REQUESTED:          0  ISSUED:          0  USEFUL:          0  USELESS:          0
cpu0_DTLB AVERAGE MISS LATENCY: 83.1025 cycles
cpu0_ITLB TOTAL     ACCESS:    2730847  HIT:    2730844  MISS:          3
cpu0_ITLB LOAD      ACCESS:    2730847  HIT:    2730844  MISS:          3
cpu0_ITLB RFO       ACCESS:          0  HIT:          0  MISS:          0
cpu0_ITLB PREFETCH  ACCESS:          0  HIT:          0  MISS:          0
cpu0_ITLB WRITEBACK ACCESS:          0  HIT:          0  MISS:          0
cpu0_ITLB TRANSLATION ACCESS:          0  HIT:          0  MISS:          0
cpu0_ITLB PREFETCH  REQUESTED:          0  ISSUED:          0  USEFUL:          0  USELESS:          0
cpu0_ITLB AVERAGE MISS LATENCY: 520.333 cycles
cpu0_L1I TOTAL     ACCESS:    6947697  HIT:    6947669  MISS:         28
cpu0_L1I LOAD      ACCESS:    6947697  HIT:    6947669  MISS:         28
cpu0_L1I RFO       ACCESS:          0  HIT:          0  MISS:          0
cpu0_L1I PREFETCH  ACCESS:          0  HIT:          0  MISS:          0
cpu0_L1I WRITEBACK ACCESS:          0  HIT:          0  MISS:          0
cpu0_L1I TRANSLATION ACCESS:          0  HIT:          0  MISS:          0
cpu0_L1I PREFETCH  REQUESTED:          0  ISSUED:          0  USEFUL:          0  USELESS:          0
cpu0_L1I AVERAGE MISS LATENCY: 254 cycles
cpu0_STLB TOTAL     ACCESS:     214744  HIT:        121  MISS:     214623
cpu0_STLB LOAD      ACCESS:     212530  HIT:         96  MISS:     212434
cpu0_STLB RFO       ACCESS:       2214  HIT:         25  MISS:       2189
cpu0_STLB PREFETCH  ACCESS:          0  HIT:          0  MISS:          0
cpu0_STLB WRITEBACK ACCESS:          0  HIT:          0  MISS:          0
cpu0_STLB TRANSLATION ACCESS:          0  HIT:          0  MISS:          0
cpu0_STLB PREFETCH  REQUESTED:          0  ISSUED:          0  USEFUL:          0  USELESS:          0
cpu0_STLB AVERAGE MISS LATENCY: 74.149 cycles
cpu0_L1D TOTAL     ACCESS:   24605991  HIT:   22509600  MISS:    2096391
cpu0_L1D LOAD      ACCESS:    6426865  HIT:    4470867  MISS:    1955998
cpu0_L1D RFO       ACCESS:   17964948  HIT:   17824939  MISS:     140009
cpu0_L1D PREFETCH  ACCESS:          0  HIT:          0  MISS:          0
cpu0_L1D WRITEBACK ACCESS:          0  HIT:          0  MISS:          0
cpu0_L1D TRANSLATION ACCESS:     214178  HIT:     213794  MISS:        384
cpu0_L1D PREFETCH  REQUESTED:          0  ISSUED:          0  USEFUL:          0  USELESS:          0
cpu0_L1D AVERAGE MISS LATENCY: 339.763 cycles
cpu0_L2C TOTAL     ACCESS:    2839086  HIT:     742662  MISS:    2096424
cpu0_L2C LOAD      ACCESS:    1956026  HIT:          0  MISS:    1956026
cpu0_L2C RFO       ACCESS:     140009  HIT:          0  MISS:     140009
cpu0_L2C PREFETCH  ACCESS:          0  HIT:          0  MISS:          0
cpu0_L2C WRITEBACK ACCESS:     742667  HIT:     742660  MISS:          7
cpu0_L2C TRANSLATION ACCESS:        384  HIT:          2  MISS:        382
cpu0_L2C PREFETCH  REQUESTED:          0  ISSUED:          0  USEFUL:          0  USELESS:          0
cpu0_L2C AVERAGE MISS LATENCY: 328.66 cycles
LLC TOTAL     ACCESS:    2839080  HIT:      43896  MISS:    2795184
LLC LOAD      ACCESS:    1956026  HIT:      12034  MISS:    1943992
LLC RFO       ACCESS:     140009  HIT:       1341  MISS:     138668
LLC PREFETCH  ACCESS:          0  HIT:          0  MISS:          0
LLC WRITEBACK ACCESS:     742663  HIT:      30203  MISS:     712460
LLC TRANSLATION ACCESS:        382  HIT:        318  MISS:         64
LLC PREFETCH  REQUESTED:          0  ISSUED:          0  USEFUL:          0  USELESS:          0
LLC AVERAGE MISS LATENCY: 230.749 cycles

DRAM Statistics
 CHANNEL 0
 RQ ROW_BUFFER_HIT:     357488  ROW_BUFFER_MISS:    1725233
 DBUS AVG_CONGESTED_CYCLE:    3.94697
 WQ ROW_BUFFER_HIT:      41865  ROW_BUFFER_MISS:     692621  FULL:          0


CPU 0 Branch Prediction Accuracy: 99.9991% MPKI: 0.00037 Average ROB Occupancy at Mispredict: 87.2162
Branch type MPKI
BRANCH_DIRECT_JUMP: 4e-05
BRANCH_INDIRECT: 0
BRANCH_CONDITIONAL: 0.00015
BRANCH_DIRECT_CALL: 9e-05
BRANCH_INDIRECT_CALL: 0
BRANCH_RETURN: 9e-05

