
*** ChampSim Multicore Out-of-Order Simulator ***

Warmup Instructions: 10000000
Simulation Instructions: 100000000
Number of CPUs: 1
Off-chip DRAM Size: 4 GiB Channels: 1 Width: 64-bit Data Rate: 3200 MT/s

VirtualMemory physical capacity: 8588881920 num_ppages: 2096895
VirtualMemory page size: 4096 log2_page_size: 12

CPU 0 runs /datasets/cs240c-wi22-a00-public/data/Assignment2/milc_409B.trace.xz
CPU 0 Bimodal branch predictor
Basic BTB sets: 1024 ways: 8 indirect buffer size: 4096 RAS size: 64
5th iteration
No hysteresis, common rrpv
Initialize Hawkeye state
Initialize SRRIP state
Heartbeat CPU 0 instructions: 10000000 cycles: 3019991 heartbeat IPC: 3.31127 cumulative IPC: 3.31127 (Simulation time: 0 hr 0 min 30 sec) 

Warmup complete CPU 0 instructions: 10000004 cycles: 3019992 (Simulation time: 0 hr 0 min 30 sec) 

Heartbeat CPU 0 instructions: 20000002 cycles: 19517389 heartbeat IPC: 0.606156 cumulative IPC: 0.606156 (Simulation time: 0 hr 1 min 41 sec) 
Heartbeat CPU 0 instructions: 30000001 cycles: 35886115 heartbeat IPC: 0.610921 cumulative IPC: 0.608529 (Simulation time: 0 hr 2 min 51 sec) 
Heartbeat CPU 0 instructions: 40000004 cycles: 52272380 heartbeat IPC: 0.610267 cumulative IPC: 0.609107 (Simulation time: 0 hr 4 min 2 sec) 
Heartbeat CPU 0 instructions: 50000000 cycles: 68656215 heartbeat IPC: 0.610357 cumulative IPC: 0.60942 (Simulation time: 0 hr 5 min 12 sec) 
Heartbeat CPU 0 instructions: 60000004 cycles: 90830412 heartbeat IPC: 0.450975 cumulative IPC: 0.569408 (Simulation time: 0 hr 6 min 53 sec) 
Heartbeat CPU 0 instructions: 70000003 cycles: 106724643 heartbeat IPC: 0.629159 cumulative IPC: 0.578566 (Simulation time: 0 hr 7 min 58 sec) 
Heartbeat CPU 0 instructions: 80000002 cycles: 122747592 heartbeat IPC: 0.624105 cumulative IPC: 0.58466 (Simulation time: 0 hr 9 min 4 sec) 
Heartbeat CPU 0 instructions: 90000001 cycles: 138667799 heartbeat IPC: 0.628132 cumulative IPC: 0.589763 (Simulation time: 0 hr 10 min 11 sec) 
Heartbeat CPU 0 instructions: 100000001 cycles: 154629403 heartbeat IPC: 0.626503 cumulative IPC: 0.593631 (Simulation time: 0 hr 11 min 18 sec) 
Heartbeat CPU 0 instructions: 110000003 cycles: 175386309 heartbeat IPC: 0.481767 cumulative IPC: 0.58016 (Simulation time: 0 hr 13 min 29 sec) 
Finished CPU 0 instructions: 100000004 cycles: 172366318 cumulative IPC: 0.58016 (Simulation time: 0 hr 13 min 29 sec) 

ChampSim completed all CPUs

Region of Interest Statistics

CPU 0 cumulative IPC: 0.58016 instructions: 100000004 cycles: 172366318
cpu0_DTLB TOTAL     ACCESS:   14827013  HIT:   14651847  MISS:     175166
cpu0_DTLB LOAD      ACCESS:    7378709  HIT:    7205684  MISS:     173025
cpu0_DTLB RFO       ACCESS:    7448304  HIT:    7446163  MISS:       2141
cpu0_DTLB PREFETCH  ACCESS:          0  HIT:          0  MISS:          0
cpu0_DTLB WRITEBACK ACCESS:          0  HIT:          0  MISS:          0
cpu0_DTLB TRANSLATION ACCESS:          0  HIT:          0  MISS:          0
cpu0_DTLB PREFETCH  REQUESTED:          0  ISSUED:          0  USEFUL:          0  USELESS:          0
cpu0_DTLB AVERAGE MISS LATENCY: 105.455 cycles
cpu0_ITLB TOTAL     ACCESS:    2819366  HIT:    2819362  MISS:          4
cpu0_ITLB LOAD      ACCESS:    2819366  HIT:    2819362  MISS:          4
cpu0_ITLB RFO       ACCESS:          0  HIT:          0  MISS:          0
cpu0_ITLB PREFETCH  ACCESS:          0  HIT:          0  MISS:          0
cpu0_ITLB WRITEBACK ACCESS:          0  HIT:          0  MISS:          0
cpu0_ITLB TRANSLATION ACCESS:          0  HIT:          0  MISS:          0
cpu0_ITLB PREFETCH  REQUESTED:          0  ISSUED:          0  USEFUL:          0  USELESS:          0
cpu0_ITLB AVERAGE MISS LATENCY: 225 cycles
cpu0_L1I TOTAL     ACCESS:    7051799  HIT:    7051748  MISS:         51
cpu0_L1I LOAD      ACCESS:    7051799  HIT:    7051748  MISS:         51
cpu0_L1I RFO       ACCESS:          0  HIT:          0  MISS:          0
cpu0_L1I PREFETCH  ACCESS:          0  HIT:          0  MISS:          0
cpu0_L1I WRITEBACK ACCESS:          0  HIT:          0  MISS:          0
cpu0_L1I TRANSLATION ACCESS:          0  HIT:          0  MISS:          0
cpu0_L1I PREFETCH  REQUESTED:          0  ISSUED:          0  USEFUL:          0  USELESS:          0
cpu0_L1I AVERAGE MISS LATENCY: 188.098 cycles
cpu0_STLB TOTAL     ACCESS:     175170  HIT:          0  MISS:     175170
cpu0_STLB LOAD      ACCESS:     173029  HIT:          0  MISS:     173029
cpu0_STLB RFO       ACCESS:       2141  HIT:          0  MISS:       2141
cpu0_STLB PREFETCH  ACCESS:          0  HIT:          0  MISS:          0
cpu0_STLB WRITEBACK ACCESS:          0  HIT:          0  MISS:          0
cpu0_STLB TRANSLATION ACCESS:          0  HIT:          0  MISS:          0
cpu0_STLB PREFETCH  REQUESTED:          0  ISSUED:          0  USEFUL:          0  USELESS:          0
cpu0_STLB AVERAGE MISS LATENCY: 96.4577 cycles
cpu0_L1D TOTAL     ACCESS:   28474709  HIT:   26657221  MISS:    1817488
cpu0_L1D LOAD      ACCESS:    6442057  HIT:    4761467  MISS:    1680590
cpu0_L1D RFO       ACCESS:   21857485  HIT:   21720638  MISS:     136847
cpu0_L1D PREFETCH  ACCESS:          0  HIT:          0  MISS:          0
cpu0_L1D WRITEBACK ACCESS:          0  HIT:          0  MISS:          0
cpu0_L1D TRANSLATION ACCESS:     175167  HIT:     175116  MISS:         51
cpu0_L1D PREFETCH  REQUESTED:          0  ISSUED:          0  USEFUL:          0  USELESS:          0
cpu0_L1D AVERAGE MISS LATENCY: 386.47 cycles
cpu0_L2C TOTAL     ACCESS:    2676936  HIT:     859383  MISS:    1817553
cpu0_L2C LOAD      ACCESS:    1680641  HIT:          0  MISS:    1680641
cpu0_L2C RFO       ACCESS:     136847  HIT:          0  MISS:     136847
cpu0_L2C PREFETCH  ACCESS:          0  HIT:          0  MISS:          0
cpu0_L2C WRITEBACK ACCESS:     859397  HIT:     859383  MISS:         14
cpu0_L2C TRANSLATION ACCESS:         51  HIT:          0  MISS:         51
cpu0_L2C PREFETCH  REQUESTED:          0  ISSUED:          0  USEFUL:          0  USELESS:          0
cpu0_L2C AVERAGE MISS LATENCY: 375.414 cycles
LLC TOTAL     ACCESS:    2673600  HIT:      50673  MISS:    2622927
LLC LOAD      ACCESS:    1680641  HIT:      11991  MISS:    1668650
LLC RFO       ACCESS:     136847  HIT:       7824  MISS:     129023
LLC PREFETCH  ACCESS:          0  HIT:          0  MISS:          0
LLC WRITEBACK ACCESS:     856061  HIT:      30855  MISS:     825206
LLC TRANSLATION ACCESS:         51  HIT:          3  MISS:         48
LLC PREFETCH  REQUESTED:          0  ISSUED:          0  USEFUL:          0  USELESS:          0
LLC AVERAGE MISS LATENCY: 245.591 cycles

DRAM Statistics
 CHANNEL 0
 RQ ROW_BUFFER_HIT:     239620  ROW_BUFFER_MISS:    1558096
 DBUS AVG_CONGESTED_CYCLE:     3.9702
 WQ ROW_BUFFER_HIT:      49825  ROW_BUFFER_MISS:     795079  FULL:          0


CPU 0 Branch Prediction Accuracy: 99.9987% MPKI: 0.00058 Average ROB Occupancy at Mispredict: 56.8448
Branch type MPKI
BRANCH_DIRECT_JUMP: 0.0001
BRANCH_INDIRECT: 0
BRANCH_CONDITIONAL: 0.00033
BRANCH_DIRECT_CALL: 8e-05
BRANCH_INDIRECT_CALL: 0
BRANCH_RETURN: 7e-05

