
*** ChampSim Multicore Out-of-Order Simulator ***

Warmup Instructions: 10000000
Simulation Instructions: 100000000
Number of CPUs: 1
Off-chip DRAM Size: 4 GiB Channels: 1 Width: 64-bit Data Rate: 3200 MT/s

VirtualMemory physical capacity: 8588881920 num_ppages: 2096895
VirtualMemory page size: 4096 log2_page_size: 12

CPU 0 runs /datasets/cs240c-wi22-a00-public/data/Assignment2/hmmer_7B.trace.xz
CPU 0 Bimodal branch predictor
Basic BTB sets: 1024 ways: 8 indirect buffer size: 4096 RAS size: 64
Initialize Hawkeye state
Initialize SRRIP state
Heartbeat CPU 0 instructions: 10000004 cycles: 3986064 heartbeat IPC: 2.50874 cumulative IPC: 2.50874 (Simulation time: 0 hr 0 min 52 sec) 

Warmup complete CPU 0 instructions: 10000004 cycles: 3986064 (Simulation time: 0 hr 0 min 52 sec) 

Heartbeat CPU 0 instructions: 20000004 cycles: 9736952 heartbeat IPC: 1.73886 cumulative IPC: 1.73886 (Simulation time: 0 hr 2 min 4 sec) 
Heartbeat CPU 0 instructions: 30000001 cycles: 15172818 heartbeat IPC: 1.83963 cumulative IPC: 1.78783 (Simulation time: 0 hr 3 min 16 sec) 
Heartbeat CPU 0 instructions: 40000001 cycles: 19985681 heartbeat IPC: 2.07777 cumulative IPC: 1.87504 (Simulation time: 0 hr 4 min 28 sec) 
Heartbeat CPU 0 instructions: 50000000 cycles: 25261408 heartbeat IPC: 1.89547 cumulative IPC: 1.88011 (Simulation time: 0 hr 5 min 36 sec) 
Heartbeat CPU 0 instructions: 60000000 cycles: 29819138 heartbeat IPC: 2.19407 cumulative IPC: 1.9355 (Simulation time: 0 hr 6 min 42 sec) 
Heartbeat CPU 0 instructions: 70000003 cycles: 34146432 heartbeat IPC: 2.31091 cumulative IPC: 1.98937 (Simulation time: 0 hr 7 min 47 sec) 
Heartbeat CPU 0 instructions: 80000001 cycles: 38456401 heartbeat IPC: 2.3202 cumulative IPC: 2.03073 (Simulation time: 0 hr 8 min 54 sec) 
Heartbeat CPU 0 instructions: 90000004 cycles: 42776269 heartbeat IPC: 2.31489 cumulative IPC: 2.06238 (Simulation time: 0 hr 9 min 58 sec) 
Heartbeat CPU 0 instructions: 100000002 cycles: 47096797 heartbeat IPC: 2.31453 cumulative IPC: 2.08765 (Simulation time: 0 hr 11 min 1 sec) 
Heartbeat CPU 0 instructions: 110000001 cycles: 51429821 heartbeat IPC: 2.30786 cumulative IPC: 2.10776 (Simulation time: 0 hr 12 min 5 sec) 
Finished CPU 0 instructions: 100000002 cycles: 47443758 cumulative IPC: 2.10776 (Simulation time: 0 hr 12 min 5 sec) 

ChampSim completed all CPUs

Region of Interest Statistics

CPU 0 cumulative IPC: 2.10776 instructions: 100000002 cycles: 47443758
cpu0_DTLB TOTAL     ACCESS:   40546369  HIT:   40532189  MISS:      14180
cpu0_DTLB LOAD      ACCESS:   32391222  HIT:   32383473  MISS:       7749
cpu0_DTLB RFO       ACCESS:    8155147  HIT:    8148716  MISS:       6431
cpu0_DTLB PREFETCH  ACCESS:          0  HIT:          0  MISS:          0
cpu0_DTLB WRITEBACK ACCESS:          0  HIT:          0  MISS:          0
cpu0_DTLB TRANSLATION ACCESS:          0  HIT:          0  MISS:          0
cpu0_DTLB PREFETCH  REQUESTED:          0  ISSUED:          0  USEFUL:          0  USELESS:          0
cpu0_DTLB AVERAGE MISS LATENCY: 15.3623 cycles
cpu0_ITLB TOTAL     ACCESS:     794483  HIT:     794411  MISS:         72
cpu0_ITLB LOAD      ACCESS:     794483  HIT:     794411  MISS:         72
cpu0_ITLB RFO       ACCESS:          0  HIT:          0  MISS:          0
cpu0_ITLB PREFETCH  ACCESS:          0  HIT:          0  MISS:          0
cpu0_ITLB WRITEBACK ACCESS:          0  HIT:          0  MISS:          0
cpu0_ITLB TRANSLATION ACCESS:          0  HIT:          0  MISS:          0
cpu0_ITLB PREFETCH  REQUESTED:          0  ISSUED:          0  USEFUL:          0  USELESS:          0
cpu0_ITLB AVERAGE MISS LATENCY: 23.2639 cycles
cpu0_L1I TOTAL     ACCESS:      62154  HIT:      62049  MISS:        105
cpu0_L1I LOAD      ACCESS:      62154  HIT:      62049  MISS:        105
cpu0_L1I RFO       ACCESS:          0  HIT:          0  MISS:          0
cpu0_L1I PREFETCH  ACCESS:          0  HIT:          0  MISS:          0
cpu0_L1I WRITEBACK ACCESS:          0  HIT:          0  MISS:          0
cpu0_L1I TRANSLATION ACCESS:          0  HIT:          0  MISS:          0
cpu0_L1I PREFETCH  REQUESTED:          0  ISSUED:          0  USEFUL:          0  USELESS:          0
cpu0_L1I AVERAGE MISS LATENCY: 111.171 cycles
cpu0_STLB TOTAL     ACCESS:      14252  HIT:      13797  MISS:        455
cpu0_STLB LOAD      ACCESS:       7821  HIT:       7813  MISS:          8
cpu0_STLB RFO       ACCESS:       6431  HIT:       5984  MISS:        447
cpu0_STLB PREFETCH  ACCESS:          0  HIT:          0  MISS:          0
cpu0_STLB WRITEBACK ACCESS:          0  HIT:          0  MISS:          0
cpu0_STLB TRANSLATION ACCESS:          0  HIT:          0  MISS:          0
cpu0_STLB PREFETCH  REQUESTED:          0  ISSUED:          0  USEFUL:          0  USELESS:          0
cpu0_STLB AVERAGE MISS LATENCY: 200.334 cycles
cpu0_L1D TOTAL     ACCESS:   33049701  HIT:   32579735  MISS:     469966
cpu0_L1D LOAD      ACCESS:   28668593  HIT:   28507358  MISS:     161235
cpu0_L1D RFO       ACCESS:    4380654  HIT:    4071946  MISS:     308708
cpu0_L1D PREFETCH  ACCESS:          0  HIT:          0  MISS:          0
cpu0_L1D WRITEBACK ACCESS:          0  HIT:          0  MISS:          0
cpu0_L1D TRANSLATION ACCESS:        454  HIT:        431  MISS:         23
cpu0_L1D PREFETCH  REQUESTED:          0  ISSUED:          0  USEFUL:          0  USELESS:          0
cpu0_L1D AVERAGE MISS LATENCY: 350.731 cycles
cpu0_L2C TOTAL     ACCESS:     775432  HIT:     470507  MISS:     304925
cpu0_L2C LOAD      ACCESS:     161340  HIT:     149104  MISS:      12236
cpu0_L2C RFO       ACCESS:     308708  HIT:      16074  MISS:     292634
cpu0_L2C PREFETCH  ACCESS:          0  HIT:          0  MISS:          0
cpu0_L2C WRITEBACK ACCESS:     305361  HIT:     305314  MISS:         47
cpu0_L2C TRANSLATION ACCESS:         23  HIT:         15  MISS:          8
cpu0_L2C PREFETCH  REQUESTED:          0  ISSUED:          0  USEFUL:          0  USELESS:          0
cpu0_L2C AVERAGE MISS LATENCY: 523.632 cycles
LLC TOTAL     ACCESS:     594833  HIT:     477126  MISS:     117707
LLC LOAD      ACCESS:      12235  HIT:       9182  MISS:       3053
LLC RFO       ACCESS:     292633  HIT:     187956  MISS:     104677
LLC PREFETCH  ACCESS:          0  HIT:          0  MISS:          0
LLC WRITEBACK ACCESS:     289957  HIT:     279987  MISS:       9970
LLC TRANSLATION ACCESS:          8  HIT:          1  MISS:          7
LLC PREFETCH  REQUESTED:          0  ISSUED:          0  USEFUL:          0  USELESS:          0
LLC AVERAGE MISS LATENCY: 1302.1 cycles

DRAM Statistics
 CHANNEL 0
 RQ ROW_BUFFER_HIT:       1229  ROW_BUFFER_MISS:     106505
 DBUS AVG_CONGESTED_CYCLE:    3.99835
 WQ ROW_BUFFER_HIT:        950  ROW_BUFFER_MISS:     100034  FULL:          0


CPU 0 Branch Prediction Accuracy: 98.9368% MPKI: 0.40856 Average ROB Occupancy at Mispredict: 252.67
Branch type MPKI
BRANCH_DIRECT_JUMP: 0.00016
BRANCH_INDIRECT: 0.00157
BRANCH_CONDITIONAL: 0.40659
BRANCH_DIRECT_CALL: 9e-05
BRANCH_INDIRECT_CALL: 3e-05
BRANCH_RETURN: 0.00012

