
*** ChampSim Multicore Out-of-Order Simulator ***

Warmup Instructions: 10000000
Simulation Instructions: 100000000
Number of CPUs: 1
Off-chip DRAM Size: 4 GiB Channels: 1 Width: 64-bit Data Rate: 3200 MT/s

VirtualMemory physical capacity: 8588881920 num_ppages: 2096895
VirtualMemory page size: 4096 log2_page_size: 12

CPU 0 runs /datasets/cs240c-wi22-a00-public/data/Assignment2/astar_23B.trace.xz
CPU 0 Bimodal branch predictor
Basic BTB sets: 1024 ways: 8 indirect buffer size: 4096 RAS size: 64
Initialize Hawkeye state
Initialize SRRIP state
Heartbeat CPU 0 instructions: 10000002 cycles: 2670768 heartbeat IPC: 3.74424 cumulative IPC: 3.74424 (Simulation time: 0 hr 0 min 35 sec) 

Warmup complete CPU 0 instructions: 10000002 cycles: 2670768 (Simulation time: 0 hr 0 min 35 sec) 

Heartbeat CPU 0 instructions: 20000003 cycles: 25570298 heartbeat IPC: 0.43669 cumulative IPC: 0.43669 (Simulation time: 0 hr 1 min 20 sec) 
Heartbeat CPU 0 instructions: 30000000 cycles: 49882659 heartbeat IPC: 0.411313 cumulative IPC: 0.423622 (Simulation time: 0 hr 2 min 5 sec) 
Heartbeat CPU 0 instructions: 40000002 cycles: 74357304 heartbeat IPC: 0.408586 cumulative IPC: 0.418489 (Simulation time: 0 hr 2 min 53 sec) 
Heartbeat CPU 0 instructions: 50000002 cycles: 98581993 heartbeat IPC: 0.412802 cumulative IPC: 0.417052 (Simulation time: 0 hr 3 min 37 sec) 
Heartbeat CPU 0 instructions: 60000000 cycles: 123124087 heartbeat IPC: 0.407463 cumulative IPC: 0.415099 (Simulation time: 0 hr 4 min 24 sec) 
Heartbeat CPU 0 instructions: 70000000 cycles: 146233561 heartbeat IPC: 0.432723 cumulative IPC: 0.417936 (Simulation time: 0 hr 5 min 9 sec) 
Heartbeat CPU 0 instructions: 80000000 cycles: 170217799 heartbeat IPC: 0.41694 cumulative IPC: 0.417793 (Simulation time: 0 hr 5 min 55 sec) 
Heartbeat CPU 0 instructions: 90000004 cycles: 194461651 heartbeat IPC: 0.412476 cumulative IPC: 0.417121 (Simulation time: 0 hr 6 min 40 sec) 
Heartbeat CPU 0 instructions: 100000002 cycles: 217795483 heartbeat IPC: 0.428562 cumulative IPC: 0.418362 (Simulation time: 0 hr 7 min 23 sec) 
Heartbeat CPU 0 instructions: 110000003 cycles: 241740399 heartbeat IPC: 0.417625 cumulative IPC: 0.418288 (Simulation time: 0 hr 8 min 8 sec) 
Finished CPU 0 instructions: 100000001 cycles: 239069631 cumulative IPC: 0.418288 (Simulation time: 0 hr 8 min 8 sec) 

ChampSim completed all CPUs

Region of Interest Statistics

CPU 0 cumulative IPC: 0.418288 instructions: 100000001 cycles: 239069631
cpu0_DTLB TOTAL     ACCESS:   24054193  HIT:   21626347  MISS:    2427846
cpu0_DTLB LOAD      ACCESS:   21285521  HIT:   19103586  MISS:    2181935
cpu0_DTLB RFO       ACCESS:    2768672  HIT:    2522761  MISS:     245911
cpu0_DTLB PREFETCH  ACCESS:          0  HIT:          0  MISS:          0
cpu0_DTLB WRITEBACK ACCESS:          0  HIT:          0  MISS:          0
cpu0_DTLB TRANSLATION ACCESS:          0  HIT:          0  MISS:          0
cpu0_DTLB PREFETCH  REQUESTED:          0  ISSUED:          0  USEFUL:          0  USELESS:          0
cpu0_DTLB AVERAGE MISS LATENCY: 10.5705 cycles
cpu0_ITLB TOTAL     ACCESS:   12810468  HIT:   12810458  MISS:         10
cpu0_ITLB LOAD      ACCESS:   12810468  HIT:   12810458  MISS:         10
cpu0_ITLB RFO       ACCESS:          0  HIT:          0  MISS:          0
cpu0_ITLB PREFETCH  ACCESS:          0  HIT:          0  MISS:          0
cpu0_ITLB WRITEBACK ACCESS:          0  HIT:          0  MISS:          0
cpu0_ITLB TRANSLATION ACCESS:          0  HIT:          0  MISS:          0
cpu0_ITLB PREFETCH  REQUESTED:          0  ISSUED:          0  USEFUL:          0  USELESS:          0
cpu0_ITLB AVERAGE MISS LATENCY: 239.6 cycles
cpu0_L1I TOTAL     ACCESS:       4966  HIT:       4865  MISS:        101
cpu0_L1I LOAD      ACCESS:       4966  HIT:       4865  MISS:        101
cpu0_L1I RFO       ACCESS:          0  HIT:          0  MISS:          0
cpu0_L1I PREFETCH  ACCESS:          0  HIT:          0  MISS:          0
cpu0_L1I WRITEBACK ACCESS:          0  HIT:          0  MISS:          0
cpu0_L1I TRANSLATION ACCESS:          0  HIT:          0  MISS:          0
cpu0_L1I PREFETCH  REQUESTED:          0  ISSUED:          0  USEFUL:          0  USELESS:          0
cpu0_L1I AVERAGE MISS LATENCY: 211.525 cycles
cpu0_STLB TOTAL     ACCESS:    2427856  HIT:    2026646  MISS:     401210
cpu0_STLB LOAD      ACCESS:    2181945  HIT:    1847059  MISS:     334886
cpu0_STLB RFO       ACCESS:     245911  HIT:     179587  MISS:      66324
cpu0_STLB PREFETCH  ACCESS:          0  HIT:          0  MISS:          0
cpu0_STLB WRITEBACK ACCESS:          0  HIT:          0  MISS:          0
cpu0_STLB TRANSLATION ACCESS:          0  HIT:          0  MISS:          0
cpu0_STLB PREFETCH  REQUESTED:          0  ISSUED:          0  USEFUL:          0  USELESS:          0
cpu0_STLB AVERAGE MISS LATENCY: 9.44411 cycles
cpu0_L1D TOTAL     ACCESS:   26431675  HIT:   23507185  MISS:    2924490
cpu0_L1D LOAD      ACCESS:   21757759  HIT:   18872335  MISS:    2885424
cpu0_L1D RFO       ACCESS:    4287390  HIT:    4250307  MISS:      37083
cpu0_L1D PREFETCH  ACCESS:          0  HIT:          0  MISS:          0
cpu0_L1D WRITEBACK ACCESS:          0  HIT:          0  MISS:          0
cpu0_L1D TRANSLATION ACCESS:     386526  HIT:     384543  MISS:       1983
cpu0_L1D PREFETCH  REQUESTED:          0  ISSUED:          0  USEFUL:          0  USELESS:          0
cpu0_L1D AVERAGE MISS LATENCY: 33.2258 cycles
cpu0_L2C TOTAL     ACCESS:    3881064  HIT:    2756694  MISS:    1124370
cpu0_L2C LOAD      ACCESS:    2885454  HIT:    1767323  MISS:    1118131
cpu0_L2C RFO       ACCESS:      37083  HIT:      31088  MISS:       5995
cpu0_L2C PREFETCH  ACCESS:          0  HIT:          0  MISS:          0
cpu0_L2C WRITEBACK ACCESS:     956544  HIT:     956488  MISS:         56
cpu0_L2C TRANSLATION ACCESS:       1983  HIT:       1795  MISS:        188
cpu0_L2C PREFETCH  REQUESTED:          0  ISSUED:          0  USEFUL:          0  USELESS:          0
cpu0_L2C AVERAGE MISS LATENCY: 57.7744 cycles
LLC TOTAL     ACCESS:    1532666  HIT:    1260061  MISS:     272605
LLC LOAD      ACCESS:    1117975  HIT:     879631  MISS:     238344
LLC RFO       ACCESS:       5995  HIT:       5654  MISS:        341
LLC PREFETCH  ACCESS:          0  HIT:          0  MISS:          0
LLC WRITEBACK ACCESS:     408508  HIT:     374602  MISS:      33906
LLC TRANSLATION ACCESS:        188  HIT:        174  MISS:         14
LLC PREFETCH  REQUESTED:          0  ISSUED:          0  USEFUL:          0  USELESS:          0
LLC AVERAGE MISS LATENCY: 151.693 cycles

DRAM Statistics
 CHANNEL 0
 RQ ROW_BUFFER_HIT:        569  ROW_BUFFER_MISS:     237930
 DBUS AVG_CONGESTED_CYCLE:    3.57246
 WQ ROW_BUFFER_HIT:       6980  ROW_BUFFER_MISS:     131403  FULL:          0


CPU 0 Branch Prediction Accuracy: 69.3175% MPKI: 58.5794 Average ROB Occupancy at Mispredict: 5.13463
Branch type MPKI
BRANCH_DIRECT_JUMP: 0.00025
BRANCH_INDIRECT: 0
BRANCH_CONDITIONAL: 58.5789
BRANCH_DIRECT_CALL: 0.00016
BRANCH_INDIRECT_CALL: 0
BRANCH_RETURN: 0.00016

