
*** ChampSim Multicore Out-of-Order Simulator ***

Warmup Instructions: 10000000
Simulation Instructions: 100000000
Number of CPUs: 1
Off-chip DRAM Size: 4 GiB Channels: 1 Width: 64-bit Data Rate: 3200 MT/s

VirtualMemory physical capacity: 8588881920 num_ppages: 2096895
VirtualMemory page size: 4096 log2_page_size: 12

CPU 0 runs /datasets/cs240c-wi22-a00-public/data/Assignment2/bwaves_1861B.trace.xz
CPU 0 Bimodal branch predictor
Basic BTB sets: 1024 ways: 8 indirect buffer size: 4096 RAS size: 64
Initialize Hawkeye state
Initialize SRRIP state
Heartbeat CPU 0 instructions: 10000002 cycles: 4727892 heartbeat IPC: 2.11511 cumulative IPC: 2.11511 (Simulation time: 0 hr 1 min 16 sec) 

Warmup complete CPU 0 instructions: 10000002 cycles: 4727892 (Simulation time: 0 hr 1 min 16 sec) 

Heartbeat CPU 0 instructions: 20000002 cycles: 38894136 heartbeat IPC: 0.292687 cumulative IPC: 0.292687 (Simulation time: 0 hr 4 min 36 sec) 
Heartbeat CPU 0 instructions: 30000004 cycles: 73061851 heartbeat IPC: 0.292674 cumulative IPC: 0.29268 (Simulation time: 0 hr 7 min 55 sec) 
Heartbeat CPU 0 instructions: 40000002 cycles: 107223417 heartbeat IPC: 0.292727 cumulative IPC: 0.292696 (Simulation time: 0 hr 11 min 4 sec) 
Heartbeat CPU 0 instructions: 50000003 cycles: 141387407 heartbeat IPC: 0.292706 cumulative IPC: 0.292698 (Simulation time: 0 hr 14 min 8 sec) 
Heartbeat CPU 0 instructions: 60000000 cycles: 175555504 heartbeat IPC: 0.292671 cumulative IPC: 0.292693 (Simulation time: 0 hr 17 min 11 sec) 
Heartbeat CPU 0 instructions: 70000001 cycles: 209726837 heartbeat IPC: 0.292643 cumulative IPC: 0.292684 (Simulation time: 0 hr 20 min 11 sec) 
Heartbeat CPU 0 instructions: 80000001 cycles: 243907437 heartbeat IPC: 0.292564 cumulative IPC: 0.292667 (Simulation time: 0 hr 23 min 6 sec) 
Heartbeat CPU 0 instructions: 90000001 cycles: 271512462 heartbeat IPC: 0.362253 cumulative IPC: 0.299867 (Simulation time: 0 hr 25 min 38 sec) 
Heartbeat CPU 0 instructions: 100000002 cycles: 284818589 heartbeat IPC: 0.751534 cumulative IPC: 0.321324 (Simulation time: 0 hr 27 min 5 sec) 
Heartbeat CPU 0 instructions: 110000001 cycles: 304813918 heartbeat IPC: 0.500117 cumulative IPC: 0.333238 (Simulation time: 0 hr 29 min 0 sec) 
Finished CPU 0 instructions: 100000004 cycles: 300086027 cumulative IPC: 0.333238 (Simulation time: 0 hr 29 min 0 sec) 

ChampSim completed all CPUs

Region of Interest Statistics

CPU 0 cumulative IPC: 0.333238 instructions: 100000004 cycles: 300086027
cpu0_DTLB TOTAL     ACCESS:   32227872  HIT:   32191280  MISS:      36592
cpu0_DTLB LOAD      ACCESS:   30505002  HIT:   30469111  MISS:      35891
cpu0_DTLB RFO       ACCESS:    1722870  HIT:    1722169  MISS:        701
cpu0_DTLB PREFETCH  ACCESS:          0  HIT:          0  MISS:          0
cpu0_DTLB WRITEBACK ACCESS:          0  HIT:          0  MISS:          0
cpu0_DTLB TRANSLATION ACCESS:          0  HIT:          0  MISS:          0
cpu0_DTLB PREFETCH  REQUESTED:          0  ISSUED:          0  USEFUL:          0  USELESS:          0
cpu0_DTLB AVERAGE MISS LATENCY: 234.394 cycles
cpu0_ITLB TOTAL     ACCESS:    9876510  HIT:    9876508  MISS:          2
cpu0_ITLB LOAD      ACCESS:    9876510  HIT:    9876508  MISS:          2
cpu0_ITLB RFO       ACCESS:          0  HIT:          0  MISS:          0
cpu0_ITLB PREFETCH  ACCESS:          0  HIT:          0  MISS:          0
cpu0_ITLB WRITEBACK ACCESS:          0  HIT:          0  MISS:          0
cpu0_ITLB TRANSLATION ACCESS:          0  HIT:          0  MISS:          0
cpu0_ITLB PREFETCH  REQUESTED:          0  ISSUED:          0  USEFUL:          0  USELESS:          0
cpu0_ITLB AVERAGE MISS LATENCY: 319.5 cycles
cpu0_L1I TOTAL     ACCESS:         28  HIT:         12  MISS:         16
cpu0_L1I LOAD      ACCESS:         28  HIT:         12  MISS:         16
cpu0_L1I RFO       ACCESS:          0  HIT:          0  MISS:          0
cpu0_L1I PREFETCH  ACCESS:          0  HIT:          0  MISS:          0
cpu0_L1I WRITEBACK ACCESS:          0  HIT:          0  MISS:          0
cpu0_L1I TRANSLATION ACCESS:          0  HIT:          0  MISS:          0
cpu0_L1I PREFETCH  REQUESTED:          0  ISSUED:          0  USEFUL:          0  USELESS:          0
cpu0_L1I AVERAGE MISS LATENCY: 218.438 cycles
cpu0_STLB TOTAL     ACCESS:      36594  HIT:       1139  MISS:      35455
cpu0_STLB LOAD      ACCESS:      35893  HIT:       1139  MISS:      34754
cpu0_STLB RFO       ACCESS:        701  HIT:          0  MISS:        701
cpu0_STLB PREFETCH  ACCESS:          0  HIT:          0  MISS:          0
cpu0_STLB WRITEBACK ACCESS:          0  HIT:          0  MISS:          0
cpu0_STLB TRANSLATION ACCESS:          0  HIT:          0  MISS:          0
cpu0_STLB PREFETCH  REQUESTED:          0  ISSUED:          0  USEFUL:          0  USELESS:          0
cpu0_STLB AVERAGE MISS LATENCY: 232.146 cycles
cpu0_L1D TOTAL     ACCESS:   27684714  HIT:   25272653  MISS:    2412061
cpu0_L1D LOAD      ACCESS:   24980988  HIT:   22615740  MISS:    2365248
cpu0_L1D RFO       ACCESS:    2668271  HIT:    2623400  MISS:      44871
cpu0_L1D PREFETCH  ACCESS:          0  HIT:          0  MISS:          0
cpu0_L1D WRITEBACK ACCESS:          0  HIT:          0  MISS:          0
cpu0_L1D TRANSLATION ACCESS:      35455  HIT:      33513  MISS:       1942
cpu0_L1D PREFETCH  REQUESTED:          0  ISSUED:          0  USEFUL:          0  USELESS:          0
cpu0_L1D AVERAGE MISS LATENCY: 986.434 cycles
cpu0_L2C TOTAL     ACCESS:    2572723  HIT:     254855  MISS:    2317868
cpu0_L2C LOAD      ACCESS:    2365264  HIT:      92292  MISS:    2272972
cpu0_L2C RFO       ACCESS:      44871  HIT:          0  MISS:      44871
cpu0_L2C PREFETCH  ACCESS:          0  HIT:          0  MISS:          0
cpu0_L2C WRITEBACK ACCESS:     160646  HIT:     160641  MISS:          5
cpu0_L2C TRANSLATION ACCESS:       1942  HIT:       1922  MISS:         20
cpu0_L2C PREFETCH  REQUESTED:          0  ISSUED:          0  USEFUL:          0  USELESS:          0
cpu0_L2C AVERAGE MISS LATENCY: 1014.69 cycles
LLC TOTAL     ACCESS:    2473542  HIT:     113861  MISS:    2359681
LLC LOAD      ACCESS:    2272972  HIT:      96358  MISS:    2176614
LLC RFO       ACCESS:      44871  HIT:          0  MISS:      44871
LLC PREFETCH  ACCESS:          0  HIT:          0  MISS:          0
LLC WRITEBACK ACCESS:     155679  HIT:      17501  MISS:     138178
LLC TRANSLATION ACCESS:         20  HIT:          2  MISS:         18
LLC PREFETCH  REQUESTED:          0  ISSUED:          0  USEFUL:          0  USELESS:          0
LLC AVERAGE MISS LATENCY: 976.084 cycles

DRAM Statistics
 CHANNEL 0
 RQ ROW_BUFFER_HIT:      22862  ROW_BUFFER_MISS:    2198601
 DBUS AVG_CONGESTED_CYCLE:    3.96294
 WQ ROW_BUFFER_HIT:      19797  ROW_BUFFER_MISS:     126499  FULL:          0


CPU 0 Branch Prediction Accuracy: 70.4481% MPKI: 17.8647 Average ROB Occupancy at Mispredict: 235.509
Branch type MPKI
BRANCH_DIRECT_JUMP: 2e-05
BRANCH_INDIRECT: 0
BRANCH_CONDITIONAL: 17.8646
BRANCH_DIRECT_CALL: 0
BRANCH_INDIRECT_CALL: 0
BRANCH_RETURN: 1e-05

