
*** ChampSim Multicore Out-of-Order Simulator ***

Warmup Instructions: 10000000
Simulation Instructions: 100000000
Number of CPUs: 1
Off-chip DRAM Size: 4 GiB Channels: 1 Width: 64-bit Data Rate: 3200 MT/s

VirtualMemory physical capacity: 8588881920 num_ppages: 2096895
VirtualMemory page size: 4096 log2_page_size: 12

CPU 0 runs /datasets/cs240c-wi22-a00-public/data/Assignment2/bzip2_259B.trace.xz
CPU 0 Bimodal branch predictor
Basic BTB sets: 1024 ways: 8 indirect buffer size: 4096 RAS size: 64
Initialize Hawkeye state
Initialize SRRIP state
Heartbeat CPU 0 instructions: 10000002 cycles: 2535454 heartbeat IPC: 3.94407 cumulative IPC: 3.94407 (Simulation time: 0 hr 0 min 26 sec) 

Warmup complete CPU 0 instructions: 10000002 cycles: 2535454 (Simulation time: 0 hr 0 min 26 sec) 

Heartbeat CPU 0 instructions: 20000003 cycles: 8986359 heartbeat IPC: 1.55017 cumulative IPC: 1.55017 (Simulation time: 0 hr 1 min 26 sec) 
Heartbeat CPU 0 instructions: 30000002 cycles: 14510645 heartbeat IPC: 1.81019 cumulative IPC: 1.67012 (Simulation time: 0 hr 2 min 17 sec) 
Heartbeat CPU 0 instructions: 40000003 cycles: 21150844 heartbeat IPC: 1.50598 cumulative IPC: 1.61157 (Simulation time: 0 hr 2 min 56 sec) 
Heartbeat CPU 0 instructions: 50000003 cycles: 29353463 heartbeat IPC: 1.21912 cumulative IPC: 1.49154 (Simulation time: 0 hr 3 min 27 sec) 
Heartbeat CPU 0 instructions: 60000001 cycles: 37225531 heartbeat IPC: 1.27031 cumulative IPC: 1.44133 (Simulation time: 0 hr 3 min 55 sec) 
Heartbeat CPU 0 instructions: 70000004 cycles: 43621716 heartbeat IPC: 1.56343 cumulative IPC: 1.46034 (Simulation time: 0 hr 4 min 48 sec) 
Heartbeat CPU 0 instructions: 80000004 cycles: 50272627 heartbeat IPC: 1.50355 cumulative IPC: 1.46636 (Simulation time: 0 hr 5 min 43 sec) 
Heartbeat CPU 0 instructions: 90000001 cycles: 56560157 heartbeat IPC: 1.59045 cumulative IPC: 1.4808 (Simulation time: 0 hr 6 min 28 sec) 
Heartbeat CPU 0 instructions: 100000000 cycles: 64961374 heartbeat IPC: 1.1903 cumulative IPC: 1.44171 (Simulation time: 0 hr 6 min 57 sec) 
Heartbeat CPU 0 instructions: 110000000 cycles: 72938833 heartbeat IPC: 1.25353 cumulative IPC: 1.42039 (Simulation time: 0 hr 7 min 26 sec) 
Finished CPU 0 instructions: 100000003 cycles: 70403384 cumulative IPC: 1.42039 (Simulation time: 0 hr 7 min 26 sec) 

ChampSim completed all CPUs

Region of Interest Statistics

CPU 0 cumulative IPC: 1.42039 instructions: 100000003 cycles: 70403384
cpu0_DTLB TOTAL     ACCESS:   18627636  HIT:   17966845  MISS:     660791
cpu0_DTLB LOAD      ACCESS:    9570750  HIT:    8913893  MISS:     656857
cpu0_DTLB RFO       ACCESS:    9056886  HIT:    9052952  MISS:       3934
cpu0_DTLB PREFETCH  ACCESS:          0  HIT:          0  MISS:          0
cpu0_DTLB WRITEBACK ACCESS:          0  HIT:          0  MISS:          0
cpu0_DTLB TRANSLATION ACCESS:          0  HIT:          0  MISS:          0
cpu0_DTLB PREFETCH  REQUESTED:          0  ISSUED:          0  USEFUL:          0  USELESS:          0
cpu0_DTLB AVERAGE MISS LATENCY: 9.2634 cycles
cpu0_ITLB TOTAL     ACCESS:    6776681  HIT:    6776678  MISS:          3
cpu0_ITLB LOAD      ACCESS:    6776681  HIT:    6776678  MISS:          3
cpu0_ITLB RFO       ACCESS:          0  HIT:          0  MISS:          0
cpu0_ITLB PREFETCH  ACCESS:          0  HIT:          0  MISS:          0
cpu0_ITLB WRITEBACK ACCESS:          0  HIT:          0  MISS:          0
cpu0_ITLB TRANSLATION ACCESS:          0  HIT:          0  MISS:          0
cpu0_ITLB PREFETCH  REQUESTED:          0  ISSUED:          0  USEFUL:          0  USELESS:          0
cpu0_ITLB AVERAGE MISS LATENCY: 395.333 cycles
cpu0_L1I TOTAL     ACCESS:      58668  HIT:      58529  MISS:        139
cpu0_L1I LOAD      ACCESS:      58668  HIT:      58529  MISS:        139
cpu0_L1I RFO       ACCESS:          0  HIT:          0  MISS:          0
cpu0_L1I PREFETCH  ACCESS:          0  HIT:          0  MISS:          0
cpu0_L1I WRITEBACK ACCESS:          0  HIT:          0  MISS:          0
cpu0_L1I TRANSLATION ACCESS:          0  HIT:          0  MISS:          0
cpu0_L1I PREFETCH  REQUESTED:          0  ISSUED:          0  USEFUL:          0  USELESS:          0
cpu0_L1I AVERAGE MISS LATENCY: 214.777 cycles
cpu0_STLB TOTAL     ACCESS:     660794  HIT:     659974  MISS:        820
cpu0_STLB LOAD      ACCESS:     656860  HIT:     656588  MISS:        272
cpu0_STLB RFO       ACCESS:       3934  HIT:       3386  MISS:        548
cpu0_STLB PREFETCH  ACCESS:          0  HIT:          0  MISS:          0
cpu0_STLB WRITEBACK ACCESS:          0  HIT:          0  MISS:          0
cpu0_STLB TRANSLATION ACCESS:          0  HIT:          0  MISS:          0
cpu0_STLB PREFETCH  REQUESTED:          0  ISSUED:          0  USEFUL:          0  USELESS:          0
cpu0_STLB AVERAGE MISS LATENCY: 213.606 cycles
cpu0_L1D TOTAL     ACCESS:   20316025  HIT:   19310453  MISS:    1005572
cpu0_L1D LOAD      ACCESS:   10364771  HIT:    9478396  MISS:     886375
cpu0_L1D RFO       ACCESS:    9950437  HIT:    9831559  MISS:     118878
cpu0_L1D PREFETCH  ACCESS:          0  HIT:          0  MISS:          0
cpu0_L1D WRITEBACK ACCESS:          0  HIT:          0  MISS:          0
cpu0_L1D TRANSLATION ACCESS:        817  HIT:        498  MISS:        319
cpu0_L1D PREFETCH  REQUESTED:          0  ISSUED:          0  USEFUL:          0  USELESS:          0
cpu0_L1D AVERAGE MISS LATENCY: 83.8157 cycles
cpu0_L2C TOTAL     ACCESS:    1222706  HIT:     525092  MISS:     697614
cpu0_L2C LOAD      ACCESS:     886512  HIT:     288925  MISS:     597587
cpu0_L2C RFO       ACCESS:     118877  HIT:      18904  MISS:      99973
cpu0_L2C PREFETCH  ACCESS:          0  HIT:          0  MISS:          0
cpu0_L2C WRITEBACK ACCESS:     216998  HIT:     216962  MISS:         36
cpu0_L2C TRANSLATION ACCESS:        319  HIT:        301  MISS:         18
cpu0_L2C PREFETCH  REQUESTED:          0  ISSUED:          0  USEFUL:          0  USELESS:          0
cpu0_L2C AVERAGE MISS LATENCY: 104.995 cycles
LLC TOTAL     ACCESS:     886577  HIT:     595978  MISS:     290599
LLC LOAD      ACCESS:     597586  HIT:     407351  MISS:     190235
LLC RFO       ACCESS:      99973  HIT:      45657  MISS:      54316
LLC PREFETCH  ACCESS:          0  HIT:          0  MISS:          0
LLC WRITEBACK ACCESS:     189000  HIT:     142968  MISS:      46032
LLC TRANSLATION ACCESS:         18  HIT:          2  MISS:         16
LLC PREFETCH  REQUESTED:          0  ISSUED:          0  USEFUL:          0  USELESS:          0
LLC AVERAGE MISS LATENCY: 201.639 cycles

DRAM Statistics
 CHANNEL 0
 RQ ROW_BUFFER_HIT:      29728  ROW_BUFFER_MISS:     214642
 DBUS AVG_CONGESTED_CYCLE:    3.95623
 WQ ROW_BUFFER_HIT:      13783  ROW_BUFFER_MISS:     117069  FULL:          0


CPU 0 Branch Prediction Accuracy: 93.3658% MPKI: 11.2167 Average ROB Occupancy at Mispredict: 31.7363
Branch type MPKI
BRANCH_DIRECT_JUMP: 0.0006
BRANCH_INDIRECT: 0.01713
BRANCH_CONDITIONAL: 11.1989
BRANCH_DIRECT_CALL: 5e-05
BRANCH_INDIRECT_CALL: 0
BRANCH_RETURN: 6e-05

