
*** ChampSim Multicore Out-of-Order Simulator ***

Warmup Instructions: 10000000
Simulation Instructions: 100000000
Number of CPUs: 1
Off-chip DRAM Size: 4 GiB Channels: 1 Width: 64-bit Data Rate: 3200 MT/s

VirtualMemory physical capacity: 8588881920 num_ppages: 2096895
VirtualMemory page size: 4096 log2_page_size: 12

CPU 0 runs /datasets/cs240c-wi22-a00-public/data/Assignment2/bzip2_281B.trace.xz
CPU 0 Bimodal branch predictor
Basic BTB sets: 1024 ways: 8 indirect buffer size: 4096 RAS size: 64
Initialize Hawkeye state
Initialize SRRIP state
Heartbeat CPU 0 instructions: 10000004 cycles: 3227486 heartbeat IPC: 3.09839 cumulative IPC: 3.09839 (Simulation time: 0 hr 0 min 41 sec) 

Warmup complete CPU 0 instructions: 10000004 cycles: 3227486 (Simulation time: 0 hr 0 min 41 sec) 

Heartbeat CPU 0 instructions: 20000000 cycles: 13773705 heartbeat IPC: 0.948207 cumulative IPC: 0.948207 (Simulation time: 0 hr 1 min 27 sec) 
Heartbeat CPU 0 instructions: 30000001 cycles: 25486625 heartbeat IPC: 0.853758 cumulative IPC: 0.898507 (Simulation time: 0 hr 2 min 34 sec) 
Heartbeat CPU 0 instructions: 40000002 cycles: 30166840 heartbeat IPC: 2.13665 cumulative IPC: 1.11361 (Simulation time: 0 hr 3 min 5 sec) 
Heartbeat CPU 0 instructions: 50000002 cycles: 35299718 heartbeat IPC: 1.94822 cumulative IPC: 1.24718 (Simulation time: 0 hr 3 min 38 sec) 
Heartbeat CPU 0 instructions: 60000000 cycles: 40527813 heartbeat IPC: 1.91274 cumulative IPC: 1.34047 (Simulation time: 0 hr 4 min 15 sec) 
Heartbeat CPU 0 instructions: 70000004 cycles: 48053910 heartbeat IPC: 1.32871 cumulative IPC: 1.3385 (Simulation time: 0 hr 5 min 14 sec) 
Heartbeat CPU 0 instructions: 80000003 cycles: 55672344 heartbeat IPC: 1.31261 cumulative IPC: 1.33474 (Simulation time: 0 hr 6 min 4 sec) 
Heartbeat CPU 0 instructions: 90000003 cycles: 62028818 heartbeat IPC: 1.5732 cumulative IPC: 1.36051 (Simulation time: 0 hr 6 min 41 sec) 
Heartbeat CPU 0 instructions: 100000001 cycles: 68623791 heartbeat IPC: 1.51631 cumulative IPC: 1.37622 (Simulation time: 0 hr 7 min 20 sec) 
Heartbeat CPU 0 instructions: 110000000 cycles: 75320254 heartbeat IPC: 1.49333 cumulative IPC: 1.3871 (Simulation time: 0 hr 7 min 58 sec) 
Finished CPU 0 instructions: 100000000 cycles: 72092770 cumulative IPC: 1.3871 (Simulation time: 0 hr 7 min 58 sec) 

ChampSim completed all CPUs

Region of Interest Statistics

CPU 0 cumulative IPC: 1.3871 instructions: 100000000 cycles: 72092770
cpu0_DTLB TOTAL     ACCESS:   19644003  HIT:   18885436  MISS:     758567
cpu0_DTLB LOAD      ACCESS:   13791943  HIT:   13146288  MISS:     645655
cpu0_DTLB RFO       ACCESS:    5852060  HIT:    5739148  MISS:     112912
cpu0_DTLB PREFETCH  ACCESS:          0  HIT:          0  MISS:          0
cpu0_DTLB WRITEBACK ACCESS:          0  HIT:          0  MISS:          0
cpu0_DTLB TRANSLATION ACCESS:          0  HIT:          0  MISS:          0
cpu0_DTLB PREFETCH  REQUESTED:          0  ISSUED:          0  USEFUL:          0  USELESS:          0
cpu0_DTLB AVERAGE MISS LATENCY: 9.33437 cycles
cpu0_ITLB TOTAL     ACCESS:    6423359  HIT:    6423345  MISS:         14
cpu0_ITLB LOAD      ACCESS:    6423359  HIT:    6423345  MISS:         14
cpu0_ITLB RFO       ACCESS:          0  HIT:          0  MISS:          0
cpu0_ITLB PREFETCH  ACCESS:          0  HIT:          0  MISS:          0
cpu0_ITLB WRITEBACK ACCESS:          0  HIT:          0  MISS:          0
cpu0_ITLB TRANSLATION ACCESS:          0  HIT:          0  MISS:          0
cpu0_ITLB PREFETCH  REQUESTED:          0  ISSUED:          0  USEFUL:          0  USELESS:          0
cpu0_ITLB AVERAGE MISS LATENCY: 222.429 cycles
cpu0_L1I TOTAL     ACCESS:    2685599  HIT:    2685245  MISS:        354
cpu0_L1I LOAD      ACCESS:    2685599  HIT:    2685245  MISS:        354
cpu0_L1I RFO       ACCESS:          0  HIT:          0  MISS:          0
cpu0_L1I PREFETCH  ACCESS:          0  HIT:          0  MISS:          0
cpu0_L1I WRITEBACK ACCESS:          0  HIT:          0  MISS:          0
cpu0_L1I TRANSLATION ACCESS:          0  HIT:          0  MISS:          0
cpu0_L1I PREFETCH  REQUESTED:          0  ISSUED:          0  USEFUL:          0  USELESS:          0
cpu0_L1I AVERAGE MISS LATENCY: 164.113 cycles
cpu0_STLB TOTAL     ACCESS:     758581  HIT:     757499  MISS:       1082
cpu0_STLB LOAD      ACCESS:     645669  HIT:     644762  MISS:        907
cpu0_STLB RFO       ACCESS:     112912  HIT:     112737  MISS:        175
cpu0_STLB PREFETCH  ACCESS:          0  HIT:          0  MISS:          0
cpu0_STLB WRITEBACK ACCESS:          0  HIT:          0  MISS:          0
cpu0_STLB TRANSLATION ACCESS:          0  HIT:          0  MISS:          0
cpu0_STLB PREFETCH  REQUESTED:          0  ISSUED:          0  USEFUL:          0  USELESS:          0
cpu0_STLB AVERAGE MISS LATENCY: 205.662 cycles
cpu0_L1D TOTAL     ACCESS:   23571216  HIT:   21971974  MISS:    1599242
cpu0_L1D LOAD      ACCESS:   13792917  HIT:   12399938  MISS:    1392979
cpu0_L1D RFO       ACCESS:    9777231  HIT:    9571472  MISS:     205759
cpu0_L1D PREFETCH  ACCESS:          0  HIT:          0  MISS:          0
cpu0_L1D WRITEBACK ACCESS:          0  HIT:          0  MISS:          0
cpu0_L1D TRANSLATION ACCESS:       1068  HIT:        564  MISS:        504
cpu0_L1D PREFETCH  REQUESTED:          0  ISSUED:          0  USEFUL:          0  USELESS:          0
cpu0_L1D AVERAGE MISS LATENCY: 83.8871 cycles
cpu0_L2C TOTAL     ACCESS:    1813891  HIT:     911972  MISS:     901919
cpu0_L2C LOAD      ACCESS:    1393329  HIT:     649139  MISS:     744190
cpu0_L2C RFO       ACCESS:     205741  HIT:      48238  MISS:     157503
cpu0_L2C PREFETCH  ACCESS:          0  HIT:          0  MISS:          0
cpu0_L2C WRITEBACK ACCESS:     214317  HIT:     214121  MISS:        196
cpu0_L2C TRANSLATION ACCESS:        504  HIT:        474  MISS:         30
cpu0_L2C PREFETCH  REQUESTED:          0  ISSUED:          0  USEFUL:          0  USELESS:          0
cpu0_L2C AVERAGE MISS LATENCY: 129.162 cycles
LLC TOTAL     ACCESS:    1060167  HIT:     836144  MISS:     224023
LLC LOAD      ACCESS:     744189  HIT:     609833  MISS:     134356
LLC RFO       ACCESS:     157493  HIT:      89150  MISS:      68343
LLC PREFETCH  ACCESS:          0  HIT:          0  MISS:          0
LLC WRITEBACK ACCESS:     158455  HIT:     137146  MISS:      21309
LLC TRANSLATION ACCESS:         30  HIT:         15  MISS:         15
LLC PREFETCH  REQUESTED:          0  ISSUED:          0  USEFUL:          0  USELESS:          0
LLC AVERAGE MISS LATENCY: 435.469 cycles

DRAM Statistics
 CHANNEL 0
 RQ ROW_BUFFER_HIT:      57253  ROW_BUFFER_MISS:     145126
 DBUS AVG_CONGESTED_CYCLE:    3.98298
 WQ ROW_BUFFER_HIT:       5580  ROW_BUFFER_MISS:      84952  FULL:         24


CPU 0 Branch Prediction Accuracy: 91.2056% MPKI: 12.1715 Average ROB Occupancy at Mispredict: 73.222
Branch type MPKI
BRANCH_DIRECT_JUMP: 0.00059
BRANCH_INDIRECT: 0
BRANCH_CONDITIONAL: 12.1706
BRANCH_DIRECT_CALL: 0.00014
BRANCH_INDIRECT_CALL: 0
BRANCH_RETURN: 0.00019

