
*** ChampSim Multicore Out-of-Order Simulator ***

Warmup Instructions: 10000000
Simulation Instructions: 100000000
Number of CPUs: 1
Off-chip DRAM Size: 4 GiB Channels: 1 Width: 64-bit Data Rate: 3200 MT/s

VirtualMemory physical capacity: 8588881920 num_ppages: 2096895
VirtualMemory page size: 4096 log2_page_size: 12

CPU 0 runs /datasets/cs240c-wi22-a00-public/data/Assignment2/cactusADM_1495B.trace.xz
CPU 0 Bimodal branch predictor
Basic BTB sets: 1024 ways: 8 indirect buffer size: 4096 RAS size: 64
Initialize Hawkeye state
Initialize SRRIP state
Heartbeat CPU 0 instructions: 10000001 cycles: 3702110 heartbeat IPC: 2.70116 cumulative IPC: 2.70116 (Simulation time: 0 hr 0 min 54 sec) 

Warmup complete CPU 0 instructions: 10000001 cycles: 3702110 (Simulation time: 0 hr 0 min 54 sec) 

Heartbeat CPU 0 instructions: 20000001 cycles: 11007364 heartbeat IPC: 1.36888 cumulative IPC: 1.36888 (Simulation time: 0 hr 2 min 16 sec) 
Heartbeat CPU 0 instructions: 30000003 cycles: 19918501 heartbeat IPC: 1.12219 cumulative IPC: 1.23332 (Simulation time: 0 hr 3 min 51 sec) 
Heartbeat CPU 0 instructions: 40000001 cycles: 28950269 heartbeat IPC: 1.1072 cumulative IPC: 1.18821 (Simulation time: 0 hr 5 min 22 sec) 
Heartbeat CPU 0 instructions: 50000000 cycles: 37618857 heartbeat IPC: 1.15359 cumulative IPC: 1.17936 (Simulation time: 0 hr 6 min 52 sec) 
Heartbeat CPU 0 instructions: 60000000 cycles: 44515813 heartbeat IPC: 1.44992 cumulative IPC: 1.22508 (Simulation time: 0 hr 8 min 17 sec) 
Heartbeat CPU 0 instructions: 70000000 cycles: 52330915 heartbeat IPC: 1.27957 cumulative IPC: 1.23384 (Simulation time: 0 hr 9 min 44 sec) 
Heartbeat CPU 0 instructions: 80000001 cycles: 61047641 heartbeat IPC: 1.14722 cumulative IPC: 1.22067 (Simulation time: 0 hr 11 min 14 sec) 
Heartbeat CPU 0 instructions: 90000002 cycles: 69460367 heartbeat IPC: 1.18868 cumulative IPC: 1.21658 (Simulation time: 0 hr 12 min 43 sec) 
Heartbeat CPU 0 instructions: 100000003 cycles: 78185437 heartbeat IPC: 1.14612 cumulative IPC: 1.20832 (Simulation time: 0 hr 14 min 15 sec) 
Heartbeat CPU 0 instructions: 110000004 cycles: 84336741 heartbeat IPC: 1.62567 cumulative IPC: 1.24016 (Simulation time: 0 hr 15 min 34 sec) 
Finished CPU 0 instructions: 100000003 cycles: 80634631 cumulative IPC: 1.24016 (Simulation time: 0 hr 15 min 34 sec) 

ChampSim completed all CPUs

Region of Interest Statistics

CPU 0 cumulative IPC: 1.24016 instructions: 100000003 cycles: 80634631
cpu0_DTLB TOTAL     ACCESS:   21515573  HIT:   19743189  MISS:    1772384
cpu0_DTLB LOAD      ACCESS:   17699870  HIT:   16490419  MISS:    1209451
cpu0_DTLB RFO       ACCESS:    3815703  HIT:    3252770  MISS:     562933
cpu0_DTLB PREFETCH  ACCESS:          0  HIT:          0  MISS:          0
cpu0_DTLB WRITEBACK ACCESS:          0  HIT:          0  MISS:          0
cpu0_DTLB TRANSLATION ACCESS:          0  HIT:          0  MISS:          0
cpu0_DTLB PREFETCH  REQUESTED:          0  ISSUED:          0  USEFUL:          0  USELESS:          0
cpu0_DTLB AVERAGE MISS LATENCY: 16.3098 cycles
cpu0_ITLB TOTAL     ACCESS:    1611638  HIT:    1611638  MISS:          0
cpu0_ITLB LOAD      ACCESS:    1611638  HIT:    1611638  MISS:          0
cpu0_ITLB RFO       ACCESS:          0  HIT:          0  MISS:          0
cpu0_ITLB PREFETCH  ACCESS:          0  HIT:          0  MISS:          0
cpu0_ITLB WRITEBACK ACCESS:          0  HIT:          0  MISS:          0
cpu0_ITLB TRANSLATION ACCESS:          0  HIT:          0  MISS:          0
cpu0_ITLB PREFETCH  REQUESTED:          0  ISSUED:          0  USEFUL:          0  USELESS:          0
cpu0_ITLB AVERAGE MISS LATENCY: -nan cycles
cpu0_L1I TOTAL     ACCESS:    8434512  HIT:    8434512  MISS:          0
cpu0_L1I LOAD      ACCESS:    8434512  HIT:    8434512  MISS:          0
cpu0_L1I RFO       ACCESS:          0  HIT:          0  MISS:          0
cpu0_L1I PREFETCH  ACCESS:          0  HIT:          0  MISS:          0
cpu0_L1I WRITEBACK ACCESS:          0  HIT:          0  MISS:          0
cpu0_L1I TRANSLATION ACCESS:          0  HIT:          0  MISS:          0
cpu0_L1I PREFETCH  REQUESTED:          0  ISSUED:          0  USEFUL:          0  USELESS:          0
cpu0_L1I AVERAGE MISS LATENCY: -nan cycles
cpu0_STLB TOTAL     ACCESS:    1772384  HIT:     906725  MISS:     865659
cpu0_STLB LOAD      ACCESS:    1209451  HIT:     649172  MISS:     560279
cpu0_STLB RFO       ACCESS:     562933  HIT:     257553  MISS:     305380
cpu0_STLB PREFETCH  ACCESS:          0  HIT:          0  MISS:          0
cpu0_STLB WRITEBACK ACCESS:          0  HIT:          0  MISS:          0
cpu0_STLB TRANSLATION ACCESS:          0  HIT:          0  MISS:          0
cpu0_STLB PREFETCH  REQUESTED:          0  ISSUED:          0  USEFUL:          0  USELESS:          0
cpu0_STLB AVERAGE MISS LATENCY: 14.8436 cycles
cpu0_L1D TOTAL     ACCESS:   37512026  HIT:   36223861  MISS:    1288165
cpu0_L1D LOAD      ACCESS:   25705889  HIT:   24669893  MISS:    1035996
cpu0_L1D RFO       ACCESS:   10941148  HIT:   10695916  MISS:     245232
cpu0_L1D PREFETCH  ACCESS:          0  HIT:          0  MISS:          0
cpu0_L1D WRITEBACK ACCESS:          0  HIT:          0  MISS:          0
cpu0_L1D TRANSLATION ACCESS:     864989  HIT:     858052  MISS:       6937
cpu0_L1D PREFETCH  REQUESTED:          0  ISSUED:          0  USEFUL:          0  USELESS:          0
cpu0_L1D AVERAGE MISS LATENCY: 270.299 cycles
cpu0_L2C TOTAL     ACCESS:    1536948  HIT:     676791  MISS:     860157
cpu0_L2C LOAD      ACCESS:    1035996  HIT:     421576  MISS:     614420
cpu0_L2C RFO       ACCESS:     245232  HIT:          0  MISS:     245232
cpu0_L2C PREFETCH  ACCESS:          0  HIT:          0  MISS:          0
cpu0_L2C WRITEBACK ACCESS:     248783  HIT:     248594  MISS:        189
cpu0_L2C TRANSLATION ACCESS:       6937  HIT:       6621  MISS:        316
cpu0_L2C PREFETCH  REQUESTED:          0  ISSUED:          0  USEFUL:          0  USELESS:          0
cpu0_L2C AVERAGE MISS LATENCY: 388.304 cycles
LLC TOTAL     ACCESS:    1105577  HIT:     332334  MISS:     773243
LLC LOAD      ACCESS:     614420  HIT:     159410  MISS:     455010
LLC RFO       ACCESS:     245232  HIT:      74807  MISS:     170425
LLC PREFETCH  ACCESS:          0  HIT:          0  MISS:          0
LLC WRITEBACK ACCESS:     245609  HIT:      98092  MISS:     147517
LLC TRANSLATION ACCESS:        316  HIT:         25  MISS:        291
LLC PREFETCH  REQUESTED:          0  ISSUED:          0  USEFUL:          0  USELESS:          0
LLC AVERAGE MISS LATENCY: 408.594 cycles

DRAM Statistics
 CHANNEL 0
 RQ ROW_BUFFER_HIT:       5502  ROW_BUFFER_MISS:     620218
 DBUS AVG_CONGESTED_CYCLE:    3.97554
 WQ ROW_BUFFER_HIT:      18645  ROW_BUFFER_MISS:     199275  FULL:        317


CPU 0 Branch Prediction Accuracy: 97.8411% MPKI: 0.04284 Average ROB Occupancy at Mispredict: 285.614
Branch type MPKI
BRANCH_DIRECT_JUMP: 0
BRANCH_INDIRECT: 0
BRANCH_CONDITIONAL: 0.04284
BRANCH_DIRECT_CALL: 0
BRANCH_INDIRECT_CALL: 0
BRANCH_RETURN: 0

