
*** ChampSim Multicore Out-of-Order Simulator ***

Warmup Instructions: 10000000
Simulation Instructions: 100000000
Number of CPUs: 1
Off-chip DRAM Size: 4 GiB Channels: 1 Width: 64-bit Data Rate: 3200 MT/s

VirtualMemory physical capacity: 8588881920 num_ppages: 2096895
VirtualMemory page size: 4096 log2_page_size: 12

CPU 0 runs /datasets/cs240c-wi22-a00-public/data/Assignment2/h264ref_351B.trace.xz
CPU 0 Bimodal branch predictor
Basic BTB sets: 1024 ways: 8 indirect buffer size: 4096 RAS size: 64
Initialize Hawkeye state
Initialize SRRIP state
Heartbeat CPU 0 instructions: 10000003 cycles: 3499507 heartbeat IPC: 2.85755 cumulative IPC: 2.85755 (Simulation time: 0 hr 0 min 51 sec) 

Warmup complete CPU 0 instructions: 10000003 cycles: 3499507 (Simulation time: 0 hr 0 min 51 sec) 

Heartbeat CPU 0 instructions: 20000000 cycles: 12263961 heartbeat IPC: 1.14097 cumulative IPC: 1.14097 (Simulation time: 0 hr 1 min 35 sec) 
Heartbeat CPU 0 instructions: 30000000 cycles: 18613101 heartbeat IPC: 1.57502 cumulative IPC: 1.32331 (Simulation time: 0 hr 2 min 37 sec) 
Heartbeat CPU 0 instructions: 40000001 cycles: 24751433 heartbeat IPC: 1.62911 cumulative IPC: 1.41164 (Simulation time: 0 hr 3 min 43 sec) 
Heartbeat CPU 0 instructions: 50000000 cycles: 31394037 heartbeat IPC: 1.50543 cumulative IPC: 1.43397 (Simulation time: 0 hr 4 min 30 sec) 
Heartbeat CPU 0 instructions: 60000004 cycles: 39172858 heartbeat IPC: 1.28554 cumulative IPC: 1.40161 (Simulation time: 0 hr 5 min 19 sec) 
Heartbeat CPU 0 instructions: 70000001 cycles: 45263725 heartbeat IPC: 1.6418 cumulative IPC: 1.43664 (Simulation time: 0 hr 6 min 21 sec) 
Heartbeat CPU 0 instructions: 80000004 cycles: 51221665 heartbeat IPC: 1.67843 cumulative IPC: 1.46682 (Simulation time: 0 hr 7 min 23 sec) 
Heartbeat CPU 0 instructions: 90000004 cycles: 57992657 heartbeat IPC: 1.47689 cumulative IPC: 1.46807 (Simulation time: 0 hr 8 min 6 sec) 
Heartbeat CPU 0 instructions: 100000001 cycles: 65418109 heartbeat IPC: 1.34672 cumulative IPC: 1.45352 (Simulation time: 0 hr 8 min 57 sec) 
Heartbeat CPU 0 instructions: 110000001 cycles: 71505875 heartbeat IPC: 1.64264 cumulative IPC: 1.47045 (Simulation time: 0 hr 9 min 59 sec) 
Finished CPU 0 instructions: 100000003 cycles: 68006369 cumulative IPC: 1.47045 (Simulation time: 0 hr 9 min 59 sec) 

ChampSim completed all CPUs

Region of Interest Statistics

CPU 0 cumulative IPC: 1.47045 instructions: 100000003 cycles: 68006369
cpu0_DTLB TOTAL     ACCESS:   21999911  HIT:   21964018  MISS:      35893
cpu0_DTLB LOAD      ACCESS:   18623296  HIT:   18590510  MISS:      32786
cpu0_DTLB RFO       ACCESS:    3376615  HIT:    3373508  MISS:       3107
cpu0_DTLB PREFETCH  ACCESS:          0  HIT:          0  MISS:          0
cpu0_DTLB WRITEBACK ACCESS:          0  HIT:          0  MISS:          0
cpu0_DTLB TRANSLATION ACCESS:          0  HIT:          0  MISS:          0
cpu0_DTLB PREFETCH  REQUESTED:          0  ISSUED:          0  USEFUL:          0  USELESS:          0
cpu0_DTLB AVERAGE MISS LATENCY: 12.3311 cycles
cpu0_ITLB TOTAL     ACCESS:    6595616  HIT:    6595156  MISS:        460
cpu0_ITLB LOAD      ACCESS:    6595616  HIT:    6595156  MISS:        460
cpu0_ITLB RFO       ACCESS:          0  HIT:          0  MISS:          0
cpu0_ITLB PREFETCH  ACCESS:          0  HIT:          0  MISS:          0
cpu0_ITLB WRITEBACK ACCESS:          0  HIT:          0  MISS:          0
cpu0_ITLB TRANSLATION ACCESS:          0  HIT:          0  MISS:          0
cpu0_ITLB PREFETCH  REQUESTED:          0  ISSUED:          0  USEFUL:          0  USELESS:          0
cpu0_ITLB AVERAGE MISS LATENCY: 26.45 cycles
cpu0_L1I TOTAL     ACCESS:    4925245  HIT:    4899831  MISS:      25414
cpu0_L1I LOAD      ACCESS:    4925245  HIT:    4899831  MISS:      25414
cpu0_L1I RFO       ACCESS:          0  HIT:          0  MISS:          0
cpu0_L1I PREFETCH  ACCESS:          0  HIT:          0  MISS:          0
cpu0_L1I WRITEBACK ACCESS:          0  HIT:          0  MISS:          0
cpu0_L1I TRANSLATION ACCESS:          0  HIT:          0  MISS:          0
cpu0_L1I PREFETCH  REQUESTED:          0  ISSUED:          0  USEFUL:          0  USELESS:          0
cpu0_L1I AVERAGE MISS LATENCY: 39.9999 cycles
cpu0_STLB TOTAL     ACCESS:      36353  HIT:      35221  MISS:       1132
cpu0_STLB LOAD      ACCESS:      33246  HIT:      32346  MISS:        900
cpu0_STLB RFO       ACCESS:       3107  HIT:       2875  MISS:        232
cpu0_STLB PREFETCH  ACCESS:          0  HIT:          0  MISS:          0
cpu0_STLB WRITEBACK ACCESS:          0  HIT:          0  MISS:          0
cpu0_STLB TRANSLATION ACCESS:          0  HIT:          0  MISS:          0
cpu0_STLB PREFETCH  REQUESTED:          0  ISSUED:          0  USEFUL:          0  USELESS:          0
cpu0_STLB AVERAGE MISS LATENCY: 111.886 cycles
cpu0_L1D TOTAL     ACCESS:   23785897  HIT:   23471562  MISS:     314335
cpu0_L1D LOAD      ACCESS:   17650866  HIT:   17423979  MISS:     226887
cpu0_L1D RFO       ACCESS:    6133936  HIT:    6046730  MISS:      87206
cpu0_L1D PREFETCH  ACCESS:          0  HIT:          0  MISS:          0
cpu0_L1D WRITEBACK ACCESS:          0  HIT:          0  MISS:          0
cpu0_L1D TRANSLATION ACCESS:       1095  HIT:        853  MISS:        242
cpu0_L1D PREFETCH  REQUESTED:          0  ISSUED:          0  USEFUL:          0  USELESS:          0
cpu0_L1D AVERAGE MISS LATENCY: 75.7072 cycles
cpu0_L2C TOTAL     ACCESS:     428259  HIT:     237298  MISS:     190961
cpu0_L2C LOAD      ACCESS:     252301  HIT:     142290  MISS:     110011
cpu0_L2C RFO       ACCESS:      87206  HIT:       6447  MISS:      80759
cpu0_L2C PREFETCH  ACCESS:          0  HIT:          0  MISS:          0
cpu0_L2C WRITEBACK ACCESS:      88510  HIT:      88351  MISS:        159
cpu0_L2C TRANSLATION ACCESS:        242  HIT:        210  MISS:         32
cpu0_L2C PREFETCH  REQUESTED:          0  ISSUED:          0  USEFUL:          0  USELESS:          0
cpu0_L2C AVERAGE MISS LATENCY: 110.302 cycles
LLC TOTAL     ACCESS:     266230  HIT:     184156  MISS:      82074
LLC LOAD      ACCESS:     110011  HIT:      63810  MISS:      46201
LLC RFO       ACCESS:      80759  HIT:      50208  MISS:      30551
LLC PREFETCH  ACCESS:          0  HIT:          0  MISS:          0
LLC WRITEBACK ACCESS:      75428  HIT:      70118  MISS:       5310
LLC TRANSLATION ACCESS:         32  HIT:         20  MISS:         12
LLC PREFETCH  REQUESTED:          0  ISSUED:          0  USEFUL:          0  USELESS:          0
LLC AVERAGE MISS LATENCY: 207.816 cycles

DRAM Statistics
 CHANNEL 0
 RQ ROW_BUFFER_HIT:      25124  ROW_BUFFER_MISS:      51597
 DBUS AVG_CONGESTED_CYCLE:    3.91214
 WQ ROW_BUFFER_HIT:       4279  ROW_BUFFER_MISS:      25926  FULL:          0


CPU 0 Branch Prediction Accuracy: 92.8368% MPKI: 5.81059 Average ROB Occupancy at Mispredict: 122.798
Branch type MPKI
BRANCH_DIRECT_JUMP: 0.00172
BRANCH_INDIRECT: 0.00314
BRANCH_CONDITIONAL: 5.80098
BRANCH_DIRECT_CALL: 0.00111
BRANCH_INDIRECT_CALL: 0.00157
BRANCH_RETURN: 0.00207

