
*** ChampSim Multicore Out-of-Order Simulator ***

Warmup Instructions: 10000000
Simulation Instructions: 100000000
Number of CPUs: 1
Off-chip DRAM Size: 4 GiB Channels: 1 Width: 64-bit Data Rate: 3200 MT/s

VirtualMemory physical capacity: 8588881920 num_ppages: 2096895
VirtualMemory page size: 4096 log2_page_size: 12

CPU 0 runs /datasets/cs240c-wi22-a00-public/data/Assignment2/hmmer_7B.trace.xz
CPU 0 Bimodal branch predictor
Basic BTB sets: 1024 ways: 8 indirect buffer size: 4096 RAS size: 64
Initialize Hawkeye state
Initialize SRRIP state
Heartbeat CPU 0 instructions: 10000004 cycles: 3986065 heartbeat IPC: 2.50874 cumulative IPC: 2.50874 (Simulation time: 0 hr 0 min 52 sec) 

Warmup complete CPU 0 instructions: 10000004 cycles: 3986065 (Simulation time: 0 hr 0 min 52 sec) 

Heartbeat CPU 0 instructions: 20000004 cycles: 9237422 heartbeat IPC: 1.90427 cumulative IPC: 1.90427 (Simulation time: 0 hr 2 min 9 sec) 
Heartbeat CPU 0 instructions: 30000001 cycles: 14041497 heartbeat IPC: 2.08157 cumulative IPC: 1.98897 (Simulation time: 0 hr 3 min 22 sec) 
Heartbeat CPU 0 instructions: 40000001 cycles: 18574042 heartbeat IPC: 2.20627 cumulative IPC: 2.05649 (Simulation time: 0 hr 4 min 34 sec) 
Heartbeat CPU 0 instructions: 50000000 cycles: 23815118 heartbeat IPC: 1.908 cumulative IPC: 2.01724 (Simulation time: 0 hr 5 min 47 sec) 
Heartbeat CPU 0 instructions: 60000000 cycles: 28142153 heartbeat IPC: 2.31105 cumulative IPC: 2.06987 (Simulation time: 0 hr 7 min 3 sec) 
Heartbeat CPU 0 instructions: 70000003 cycles: 32463537 heartbeat IPC: 2.31407 cumulative IPC: 2.10693 (Simulation time: 0 hr 8 min 17 sec) 
Heartbeat CPU 0 instructions: 80000001 cycles: 36773252 heartbeat IPC: 2.32034 cumulative IPC: 2.13498 (Simulation time: 0 hr 9 min 31 sec) 
Heartbeat CPU 0 instructions: 90000004 cycles: 41092859 heartbeat IPC: 2.31503 cumulative IPC: 2.15594 (Simulation time: 0 hr 10 min 40 sec) 
Heartbeat CPU 0 instructions: 100000002 cycles: 45411766 heartbeat IPC: 2.3154 cumulative IPC: 2.17256 (Simulation time: 0 hr 11 min 49 sec) 
Heartbeat CPU 0 instructions: 110000001 cycles: 49740503 heartbeat IPC: 2.31014 cumulative IPC: 2.18558 (Simulation time: 0 hr 13 min 0 sec) 
Finished CPU 0 instructions: 100000002 cycles: 45754439 cumulative IPC: 2.18558 (Simulation time: 0 hr 13 min 0 sec) 

ChampSim completed all CPUs

Region of Interest Statistics

CPU 0 cumulative IPC: 2.18558 instructions: 100000002 cycles: 45754439
cpu0_DTLB TOTAL     ACCESS:   40544474  HIT:   40530317  MISS:      14157
cpu0_DTLB LOAD      ACCESS:   32389356  HIT:   32381636  MISS:       7720
cpu0_DTLB RFO       ACCESS:    8155118  HIT:    8148681  MISS:       6437
cpu0_DTLB PREFETCH  ACCESS:          0  HIT:          0  MISS:          0
cpu0_DTLB WRITEBACK ACCESS:          0  HIT:          0  MISS:          0
cpu0_DTLB TRANSLATION ACCESS:          0  HIT:          0  MISS:          0
cpu0_DTLB PREFETCH  REQUESTED:          0  ISSUED:          0  USEFUL:          0  USELESS:          0
cpu0_DTLB AVERAGE MISS LATENCY: 14.8169 cycles
cpu0_ITLB TOTAL     ACCESS:     798811  HIT:     798739  MISS:         72
cpu0_ITLB LOAD      ACCESS:     798811  HIT:     798739  MISS:         72
cpu0_ITLB RFO       ACCESS:          0  HIT:          0  MISS:          0
cpu0_ITLB PREFETCH  ACCESS:          0  HIT:          0  MISS:          0
cpu0_ITLB WRITEBACK ACCESS:          0  HIT:          0  MISS:          0
cpu0_ITLB TRANSLATION ACCESS:          0  HIT:          0  MISS:          0
cpu0_ITLB PREFETCH  REQUESTED:          0  ISSUED:          0  USEFUL:          0  USELESS:          0
cpu0_ITLB AVERAGE MISS LATENCY: 21 cycles
cpu0_L1I TOTAL     ACCESS:      62194  HIT:      62089  MISS:        105
cpu0_L1I LOAD      ACCESS:      62194  HIT:      62089  MISS:        105
cpu0_L1I RFO       ACCESS:          0  HIT:          0  MISS:          0
cpu0_L1I PREFETCH  ACCESS:          0  HIT:          0  MISS:          0
cpu0_L1I WRITEBACK ACCESS:          0  HIT:          0  MISS:          0
cpu0_L1I TRANSLATION ACCESS:          0  HIT:          0  MISS:          0
cpu0_L1I PREFETCH  REQUESTED:          0  ISSUED:          0  USEFUL:          0  USELESS:          0
cpu0_L1I AVERAGE MISS LATENCY: 101.095 cycles
cpu0_STLB TOTAL     ACCESS:      14229  HIT:      13774  MISS:        455
cpu0_STLB LOAD      ACCESS:       7792  HIT:       7784  MISS:          8
cpu0_STLB RFO       ACCESS:       6437  HIT:       5990  MISS:        447
cpu0_STLB PREFETCH  ACCESS:          0  HIT:          0  MISS:          0
cpu0_STLB WRITEBACK ACCESS:          0  HIT:          0  MISS:          0
cpu0_STLB TRANSLATION ACCESS:          0  HIT:          0  MISS:          0
cpu0_STLB PREFETCH  REQUESTED:          0  ISSUED:          0  USEFUL:          0  USELESS:          0
cpu0_STLB AVERAGE MISS LATENCY: 182.688 cycles
cpu0_L1D TOTAL     ACCESS:   33491869  HIT:   33021754  MISS:     470115
cpu0_L1D LOAD      ACCESS:   28671947  HIT:   28510563  MISS:     161384
cpu0_L1D RFO       ACCESS:    4819468  HIT:    4510760  MISS:     308708
cpu0_L1D PREFETCH  ACCESS:          0  HIT:          0  MISS:          0
cpu0_L1D WRITEBACK ACCESS:          0  HIT:          0  MISS:          0
cpu0_L1D TRANSLATION ACCESS:        454  HIT:        431  MISS:         23
cpu0_L1D PREFETCH  REQUESTED:          0  ISSUED:          0  USEFUL:          0  USELESS:          0
cpu0_L1D AVERAGE MISS LATENCY: 243.626 cycles
cpu0_L2C TOTAL     ACCESS:     777193  HIT:     472269  MISS:     304924
cpu0_L2C LOAD      ACCESS:     161489  HIT:     149253  MISS:      12236
cpu0_L2C RFO       ACCESS:     308708  HIT:      16075  MISS:     292633
cpu0_L2C PREFETCH  ACCESS:          0  HIT:          0  MISS:          0
cpu0_L2C WRITEBACK ACCESS:     306973  HIT:     306926  MISS:         47
cpu0_L2C TRANSLATION ACCESS:         23  HIT:         15  MISS:          8
cpu0_L2C PREFETCH  REQUESTED:          0  ISSUED:          0  USEFUL:          0  USELESS:          0
cpu0_L2C AVERAGE MISS LATENCY: 358.666 cycles
LLC TOTAL     ACCESS:     596367  HIT:     450388  MISS:     145979
LLC LOAD      ACCESS:      12235  HIT:      10907  MISS:       1328
LLC RFO       ACCESS:     292632  HIT:     211710  MISS:      80922
LLC PREFETCH  ACCESS:          0  HIT:          0  MISS:          0
LLC WRITEBACK ACCESS:     291492  HIT:     227765  MISS:      63727
LLC TRANSLATION ACCESS:          8  HIT:          6  MISS:          2
LLC PREFETCH  REQUESTED:          0  ISSUED:          0  USEFUL:          0  USELESS:          0
LLC AVERAGE MISS LATENCY: 705.3 cycles

DRAM Statistics
 CHANNEL 0
 RQ ROW_BUFFER_HIT:       1001  ROW_BUFFER_MISS:      81250
 DBUS AVG_CONGESTED_CYCLE:    3.99437
 WQ ROW_BUFFER_HIT:       3952  ROW_BUFFER_MISS:      75116  FULL:      11272


CPU 0 Branch Prediction Accuracy: 98.9368% MPKI: 0.40856 Average ROB Occupancy at Mispredict: 252.429
Branch type MPKI
BRANCH_DIRECT_JUMP: 0.00016
BRANCH_INDIRECT: 0.00157
BRANCH_CONDITIONAL: 0.40659
BRANCH_DIRECT_CALL: 9e-05
BRANCH_INDIRECT_CALL: 3e-05
BRANCH_RETURN: 0.00012

