
*** ChampSim Multicore Out-of-Order Simulator ***

Warmup Instructions: 10000000
Simulation Instructions: 100000000
Number of CPUs: 1
Off-chip DRAM Size: 4 GiB Channels: 1 Width: 64-bit Data Rate: 3200 MT/s

VirtualMemory physical capacity: 8588881920 num_ppages: 2096895
VirtualMemory page size: 4096 log2_page_size: 12

CPU 0 runs /datasets/cs240c-wi22-a00-public/data/Assignment2/hmmer_397B.trace.xz
CPU 0 Bimodal branch predictor
Basic BTB sets: 1024 ways: 8 indirect buffer size: 4096 RAS size: 64
Initialize Hawkeye state
Initialize SRRIP state
Heartbeat CPU 0 instructions: 10000000 cycles: 3996187 heartbeat IPC: 2.50239 cumulative IPC: 2.50239 (Simulation time: 0 hr 0 min 56 sec) 

Warmup complete CPU 0 instructions: 10000005 cycles: 3996190 (Simulation time: 0 hr 0 min 56 sec) 

Heartbeat CPU 0 instructions: 20000002 cycles: 9213904 heartbeat IPC: 1.91655 cumulative IPC: 1.91655 (Simulation time: 0 hr 2 min 17 sec) 
Heartbeat CPU 0 instructions: 30000003 cycles: 14103305 heartbeat IPC: 2.04524 cumulative IPC: 1.9788 (Simulation time: 0 hr 3 min 37 sec) 
Heartbeat CPU 0 instructions: 40000003 cycles: 18882730 heartbeat IPC: 2.0923 cumulative IPC: 2.01524 (Simulation time: 0 hr 4 min 58 sec) 
Heartbeat CPU 0 instructions: 50000001 cycles: 23989467 heartbeat IPC: 1.9582 cumulative IPC: 2.00067 (Simulation time: 0 hr 6 min 18 sec) 
Heartbeat CPU 0 instructions: 60000002 cycles: 28809497 heartbeat IPC: 2.07468 cumulative IPC: 2.01505 (Simulation time: 0 hr 7 min 38 sec) 
Heartbeat CPU 0 instructions: 70000004 cycles: 33225271 heartbeat IPC: 2.26461 cumulative IPC: 2.05275 (Simulation time: 0 hr 8 min 56 sec) 
Heartbeat CPU 0 instructions: 80000000 cycles: 37567698 heartbeat IPC: 2.30286 cumulative IPC: 2.0851 (Simulation time: 0 hr 10 min 17 sec) 
Heartbeat CPU 0 instructions: 90000004 cycles: 41927359 heartbeat IPC: 2.29376 cumulative IPC: 2.10908 (Simulation time: 0 hr 11 min 35 sec) 
Heartbeat CPU 0 instructions: 100000003 cycles: 46263114 heartbeat IPC: 2.3064 cumulative IPC: 2.12932 (Simulation time: 0 hr 12 min 52 sec) 
Heartbeat CPU 0 instructions: 110000001 cycles: 50610613 heartbeat IPC: 2.30017 cumulative IPC: 2.14526 (Simulation time: 0 hr 14 min 9 sec) 
Finished CPU 0 instructions: 100000001 cycles: 46614424 cumulative IPC: 2.14526 (Simulation time: 0 hr 14 min 9 sec) 

ChampSim completed all CPUs

Region of Interest Statistics

CPU 0 cumulative IPC: 2.14526 instructions: 100000001 cycles: 46614424
cpu0_DTLB TOTAL     ACCESS:   40463479  HIT:   40455532  MISS:       7947
cpu0_DTLB LOAD      ACCESS:   32300684  HIT:   32297819  MISS:       2865
cpu0_DTLB RFO       ACCESS:    8162795  HIT:    8157713  MISS:       5082
cpu0_DTLB PREFETCH  ACCESS:          0  HIT:          0  MISS:          0
cpu0_DTLB WRITEBACK ACCESS:          0  HIT:          0  MISS:          0
cpu0_DTLB TRANSLATION ACCESS:          0  HIT:          0  MISS:          0
cpu0_DTLB PREFETCH  REQUESTED:          0  ISSUED:          0  USEFUL:          0  USELESS:          0
cpu0_DTLB AVERAGE MISS LATENCY: 26.0321 cycles
cpu0_ITLB TOTAL     ACCESS:     797783  HIT:     797676  MISS:        107
cpu0_ITLB LOAD      ACCESS:     797783  HIT:     797676  MISS:        107
cpu0_ITLB RFO       ACCESS:          0  HIT:          0  MISS:          0
cpu0_ITLB PREFETCH  ACCESS:          0  HIT:          0  MISS:          0
cpu0_ITLB WRITEBACK ACCESS:          0  HIT:          0  MISS:          0
cpu0_ITLB TRANSLATION ACCESS:          0  HIT:          0  MISS:          0
cpu0_ITLB PREFETCH  REQUESTED:          0  ISSUED:          0  USEFUL:          0  USELESS:          0
cpu0_ITLB AVERAGE MISS LATENCY: 79.2617 cycles
cpu0_L1I TOTAL     ACCESS:      64585  HIT:      64249  MISS:        336
cpu0_L1I LOAD      ACCESS:      64585  HIT:      64249  MISS:        336
cpu0_L1I RFO       ACCESS:          0  HIT:          0  MISS:          0
cpu0_L1I PREFETCH  ACCESS:          0  HIT:          0  MISS:          0
cpu0_L1I WRITEBACK ACCESS:          0  HIT:          0  MISS:          0
cpu0_L1I TRANSLATION ACCESS:          0  HIT:          0  MISS:          0
cpu0_L1I PREFETCH  REQUESTED:          0  ISSUED:          0  USEFUL:          0  USELESS:          0
cpu0_L1I AVERAGE MISS LATENCY: 300.432 cycles
cpu0_STLB TOTAL     ACCESS:       8054  HIT:       7274  MISS:        780
cpu0_STLB LOAD      ACCESS:       2972  HIT:       2805  MISS:        167
cpu0_STLB RFO       ACCESS:       5082  HIT:       4469  MISS:        613
cpu0_STLB PREFETCH  ACCESS:          0  HIT:          0  MISS:          0
cpu0_STLB WRITEBACK ACCESS:          0  HIT:          0  MISS:          0
cpu0_STLB TRANSLATION ACCESS:          0  HIT:          0  MISS:          0
cpu0_STLB PREFETCH  REQUESTED:          0  ISSUED:          0  USEFUL:          0  USELESS:          0
cpu0_STLB AVERAGE MISS LATENCY: 183.079 cycles
cpu0_L1D TOTAL     ACCESS:   32807243  HIT:   32341430  MISS:     465813
cpu0_L1D LOAD      ACCESS:   28661613  HIT:   28504971  MISS:     156642
cpu0_L1D RFO       ACCESS:    4144861  HIT:    3835876  MISS:     308985
cpu0_L1D PREFETCH  ACCESS:          0  HIT:          0  MISS:          0
cpu0_L1D WRITEBACK ACCESS:          0  HIT:          0  MISS:          0
cpu0_L1D TRANSLATION ACCESS:        769  HIT:        583  MISS:        186
cpu0_L1D PREFETCH  REQUESTED:          0  ISSUED:          0  USEFUL:          0  USELESS:          0
cpu0_L1D AVERAGE MISS LATENCY: 311.826 cycles
cpu0_L2C TOTAL     ACCESS:     772990  HIT:     485790  MISS:     287200
cpu0_L2C LOAD      ACCESS:     156978  HIT:     142288  MISS:      14690
cpu0_L2C RFO       ACCESS:     308985  HIT:      36529  MISS:     272456
cpu0_L2C PREFETCH  ACCESS:          0  HIT:          0  MISS:          0
cpu0_L2C WRITEBACK ACCESS:     306841  HIT:     306804  MISS:         37
cpu0_L2C TRANSLATION ACCESS:        186  HIT:        169  MISS:         17
cpu0_L2C PREFETCH  REQUESTED:          0  ISSUED:          0  USEFUL:          0  USELESS:          0
cpu0_L2C AVERAGE MISS LATENCY: 488.238 cycles
LLC TOTAL     ACCESS:     558073  HIT:     355753  MISS:     202320
LLC LOAD      ACCESS:      14690  HIT:      11135  MISS:       3555
LLC RFO       ACCESS:     272308  HIT:     141507  MISS:     130801
LLC PREFETCH  ACCESS:          0  HIT:          0  MISS:          0
LLC WRITEBACK ACCESS:     271058  HIT:     203104  MISS:      67954
LLC TRANSLATION ACCESS:         17  HIT:          7  MISS:         10
LLC PREFETCH  REQUESTED:          0  ISSUED:          0  USEFUL:          0  USELESS:          0
LLC AVERAGE MISS LATENCY: 663.278 cycles

DRAM Statistics
 CHANNEL 0
 RQ ROW_BUFFER_HIT:       1870  ROW_BUFFER_MISS:     132492
 DBUS AVG_CONGESTED_CYCLE:    3.99442
 WQ ROW_BUFFER_HIT:       7327  ROW_BUFFER_MISS:     122313  FULL:       3966


CPU 0 Branch Prediction Accuracy: 98.9257% MPKI: 0.41399 Average ROB Occupancy at Mispredict: 250.022
Branch type MPKI
BRANCH_DIRECT_JUMP: 0.00081
BRANCH_INDIRECT: 0.00176
BRANCH_CONDITIONAL: 0.40978
BRANCH_DIRECT_CALL: 0.00081
BRANCH_INDIRECT_CALL: 2e-05
BRANCH_RETURN: 0.00081

