
*** ChampSim Multicore Out-of-Order Simulator ***

Warmup Instructions: 10000000
Simulation Instructions: 100000000
Number of CPUs: 1
Off-chip DRAM Size: 4 GiB Channels: 1 Width: 64-bit Data Rate: 3200 MT/s

VirtualMemory physical capacity: 8588881920 num_ppages: 2096895
VirtualMemory page size: 4096 log2_page_size: 12

CPU 0 runs /datasets/cs240c-wi22-a00-public/data/Assignment2/hmmer_546B.trace.xz
CPU 0 Bimodal branch predictor
Basic BTB sets: 1024 ways: 8 indirect buffer size: 4096 RAS size: 64
Initialize Hawkeye state
Initialize SRRIP state
Heartbeat CPU 0 instructions: 10000000 cycles: 3988649 heartbeat IPC: 2.50711 cumulative IPC: 2.50711 (Simulation time: 0 hr 0 min 52 sec) 

Warmup complete CPU 0 instructions: 10000005 cycles: 3988653 (Simulation time: 0 hr 0 min 52 sec) 

Heartbeat CPU 0 instructions: 20000001 cycles: 8325726 heartbeat IPC: 2.3057 cumulative IPC: 2.3057 (Simulation time: 0 hr 2 min 3 sec) 
Heartbeat CPU 0 instructions: 30000003 cycles: 12667232 heartbeat IPC: 2.30335 cumulative IPC: 2.30452 (Simulation time: 0 hr 3 min 15 sec) 
Heartbeat CPU 0 instructions: 40000004 cycles: 17029625 heartbeat IPC: 2.29232 cumulative IPC: 2.30044 (Simulation time: 0 hr 4 min 28 sec) 
Heartbeat CPU 0 instructions: 50000001 cycles: 21371385 heartbeat IPC: 2.30321 cumulative IPC: 2.30113 (Simulation time: 0 hr 5 min 39 sec) 
Heartbeat CPU 0 instructions: 60000000 cycles: 25701866 heartbeat IPC: 2.30921 cumulative IPC: 2.30275 (Simulation time: 0 hr 6 min 52 sec) 
Heartbeat CPU 0 instructions: 70000002 cycles: 30037925 heartbeat IPC: 2.30624 cumulative IPC: 2.30333 (Simulation time: 0 hr 8 min 3 sec) 
Heartbeat CPU 0 instructions: 80000004 cycles: 34372992 heartbeat IPC: 2.30677 cumulative IPC: 2.30382 (Simulation time: 0 hr 9 min 11 sec) 
Heartbeat CPU 0 instructions: 90000004 cycles: 38718805 heartbeat IPC: 2.30107 cumulative IPC: 2.30347 (Simulation time: 0 hr 10 min 20 sec) 
Heartbeat CPU 0 instructions: 100000000 cycles: 43048517 heartbeat IPC: 2.30962 cumulative IPC: 2.30416 (Simulation time: 0 hr 11 min 30 sec) 
Heartbeat CPU 0 instructions: 110000000 cycles: 47397553 heartbeat IPC: 2.29936 cumulative IPC: 2.30367 (Simulation time: 0 hr 12 min 40 sec) 
Finished CPU 0 instructions: 100000000 cycles: 43408901 cumulative IPC: 2.30367 (Simulation time: 0 hr 12 min 40 sec) 

ChampSim completed all CPUs

Region of Interest Statistics

CPU 0 cumulative IPC: 2.30367 instructions: 100000000 cycles: 43408901
cpu0_DTLB TOTAL     ACCESS:   40423614  HIT:   40414366  MISS:       9248
cpu0_DTLB LOAD      ACCESS:   32255826  HIT:   32251499  MISS:       4327
cpu0_DTLB RFO       ACCESS:    8167788  HIT:    8162867  MISS:       4921
cpu0_DTLB PREFETCH  ACCESS:          0  HIT:          0  MISS:          0
cpu0_DTLB WRITEBACK ACCESS:          0  HIT:          0  MISS:          0
cpu0_DTLB TRANSLATION ACCESS:          0  HIT:          0  MISS:          0
cpu0_DTLB PREFETCH  REQUESTED:          0  ISSUED:          0  USEFUL:          0  USELESS:          0
cpu0_DTLB AVERAGE MISS LATENCY: 14.4439 cycles
cpu0_ITLB TOTAL     ACCESS:     830206  HIT:     830062  MISS:        144
cpu0_ITLB LOAD      ACCESS:     830206  HIT:     830062  MISS:        144
cpu0_ITLB RFO       ACCESS:          0  HIT:          0  MISS:          0
cpu0_ITLB PREFETCH  ACCESS:          0  HIT:          0  MISS:          0
cpu0_ITLB WRITEBACK ACCESS:          0  HIT:          0  MISS:          0
cpu0_ITLB TRANSLATION ACCESS:          0  HIT:          0  MISS:          0
cpu0_ITLB PREFETCH  REQUESTED:          0  ISSUED:          0  USEFUL:          0  USELESS:          0
cpu0_ITLB AVERAGE MISS LATENCY: 14.7778 cycles
cpu0_L1I TOTAL     ACCESS:     102114  HIT:     102029  MISS:         85
cpu0_L1I LOAD      ACCESS:     102114  HIT:     102029  MISS:         85
cpu0_L1I RFO       ACCESS:          0  HIT:          0  MISS:          0
cpu0_L1I PREFETCH  ACCESS:          0  HIT:          0  MISS:          0
cpu0_L1I WRITEBACK ACCESS:          0  HIT:          0  MISS:          0
cpu0_L1I TRANSLATION ACCESS:          0  HIT:          0  MISS:          0
cpu0_L1I PREFETCH  REQUESTED:          0  ISSUED:          0  USEFUL:          0  USELESS:          0
cpu0_L1I AVERAGE MISS LATENCY: 166.082 cycles
cpu0_STLB TOTAL     ACCESS:       9392  HIT:       9147  MISS:        245
cpu0_STLB LOAD      ACCESS:       4471  HIT:       4454  MISS:         17
cpu0_STLB RFO       ACCESS:       4921  HIT:       4693  MISS:        228
cpu0_STLB PREFETCH  ACCESS:          0  HIT:          0  MISS:          0
cpu0_STLB WRITEBACK ACCESS:          0  HIT:          0  MISS:          0
cpu0_STLB TRANSLATION ACCESS:          0  HIT:          0  MISS:          0
cpu0_STLB PREFETCH  REQUESTED:          0  ISSUED:          0  USEFUL:          0  USELESS:          0
cpu0_STLB AVERAGE MISS LATENCY: 208.653 cycles
cpu0_L1D TOTAL     ACCESS:   34707001  HIT:   34216251  MISS:     490750
cpu0_L1D LOAD      ACCESS:   28643990  HIT:   28463646  MISS:     180344
cpu0_L1D RFO       ACCESS:    6062766  HIT:    5752374  MISS:     310392
cpu0_L1D PREFETCH  ACCESS:          0  HIT:          0  MISS:          0
cpu0_L1D WRITEBACK ACCESS:          0  HIT:          0  MISS:          0
cpu0_L1D TRANSLATION ACCESS:        245  HIT:        231  MISS:         14
cpu0_L1D PREFETCH  REQUESTED:          0  ISSUED:          0  USEFUL:          0  USELESS:          0
cpu0_L1D AVERAGE MISS LATENCY: 30.1252 cycles
cpu0_L2C TOTAL     ACCESS:     803018  HIT:     574198  MISS:     228820
cpu0_L2C LOAD      ACCESS:     180426  HIT:     167258  MISS:      13168
cpu0_L2C RFO       ACCESS:     310392  HIT:      94790  MISS:     215602
cpu0_L2C PREFETCH  ACCESS:          0  HIT:          0  MISS:          0
cpu0_L2C WRITEBACK ACCESS:     312186  HIT:     312147  MISS:         39
cpu0_L2C TRANSLATION ACCESS:         14  HIT:          3  MISS:         11
cpu0_L2C PREFETCH  REQUESTED:          0  ISSUED:          0  USEFUL:          0  USELESS:          0
cpu0_L2C AVERAGE MISS LATENCY: 41.053 cycles
LLC TOTAL     ACCESS:     446808  HIT:     432115  MISS:      14693
LLC LOAD      ACCESS:      13167  HIT:      12756  MISS:        411
LLC RFO       ACCESS:     215411  HIT:     201143  MISS:      14268
LLC PREFETCH  ACCESS:          0  HIT:          0  MISS:          0
LLC WRITEBACK ACCESS:     218219  HIT:     218205  MISS:         14
LLC TRANSLATION ACCESS:         11  HIT:         11  MISS:          0
LLC PREFETCH  REQUESTED:          0  ISSUED:          0  USEFUL:          0  USELESS:          0
LLC AVERAGE MISS LATENCY: 312.61 cycles

DRAM Statistics
 CHANNEL 0
 RQ ROW_BUFFER_HIT:         29  ROW_BUFFER_MISS:      14650
 DBUS AVG_CONGESTED_CYCLE:     3.9571
 WQ ROW_BUFFER_HIT:        110  ROW_BUFFER_MISS:        525  FULL:          0


CPU 0 Branch Prediction Accuracy: 98.8434% MPKI: 0.45151 Average ROB Occupancy at Mispredict: 233.249
Branch type MPKI
BRANCH_DIRECT_JUMP: 0.00025
BRANCH_INDIRECT: 0.0025
BRANCH_CONDITIONAL: 0.44835
BRANCH_DIRECT_CALL: 0.00018
BRANCH_INDIRECT_CALL: 3e-05
BRANCH_RETURN: 0.0002

