
*** ChampSim Multicore Out-of-Order Simulator ***

Warmup Instructions: 10000000
Simulation Instructions: 100000000
Number of CPUs: 1
Off-chip DRAM Size: 4 GiB Channels: 1 Width: 64-bit Data Rate: 3200 MT/s

VirtualMemory physical capacity: 8588881920 num_ppages: 2096895
VirtualMemory page size: 4096 log2_page_size: 12

CPU 0 runs /datasets/cs240c-wi22-a00-public/data/Assignment2/milc_409B.trace.xz
CPU 0 Bimodal branch predictor
Basic BTB sets: 1024 ways: 8 indirect buffer size: 4096 RAS size: 64
Initialize Hawkeye state
Initialize SRRIP state
Heartbeat CPU 0 instructions: 10000000 cycles: 3019991 heartbeat IPC: 3.31127 cumulative IPC: 3.31127 (Simulation time: 0 hr 0 min 38 sec) 

Warmup complete CPU 0 instructions: 10000004 cycles: 3019992 (Simulation time: 0 hr 0 min 38 sec) 

Heartbeat CPU 0 instructions: 20000002 cycles: 19515771 heartbeat IPC: 0.606216 cumulative IPC: 0.606216 (Simulation time: 0 hr 2 min 20 sec) 
Heartbeat CPU 0 instructions: 30000001 cycles: 35921689 heartbeat IPC: 0.609536 cumulative IPC: 0.607871 (Simulation time: 0 hr 4 min 5 sec) 
Heartbeat CPU 0 instructions: 40000004 cycles: 52302173 heartbeat IPC: 0.610483 cumulative IPC: 0.608739 (Simulation time: 0 hr 5 min 48 sec) 
Heartbeat CPU 0 instructions: 50000000 cycles: 68672481 heartbeat IPC: 0.610862 cumulative IPC: 0.609269 (Simulation time: 0 hr 7 min 28 sec) 
Heartbeat CPU 0 instructions: 60000004 cycles: 90652322 heartbeat IPC: 0.454963 cumulative IPC: 0.570566 (Simulation time: 0 hr 9 min 51 sec) 
Heartbeat CPU 0 instructions: 70000003 cycles: 106455079 heartbeat IPC: 0.632801 cumulative IPC: 0.580074 (Simulation time: 0 hr 11 min 26 sec) 
Heartbeat CPU 0 instructions: 80000002 cycles: 122531592 heartbeat IPC: 0.622025 cumulative IPC: 0.585717 (Simulation time: 0 hr 12 min 56 sec) 
Heartbeat CPU 0 instructions: 90000001 cycles: 138511232 heartbeat IPC: 0.625796 cumulative IPC: 0.590444 (Simulation time: 0 hr 14 min 30 sec) 
Heartbeat CPU 0 instructions: 100000001 cycles: 154485917 heartbeat IPC: 0.62599 cumulative IPC: 0.594193 (Simulation time: 0 hr 16 min 6 sec) 
Heartbeat CPU 0 instructions: 110000003 cycles: 174613225 heartbeat IPC: 0.496838 cumulative IPC: 0.582774 (Simulation time: 0 hr 18 min 52 sec) 
Finished CPU 0 instructions: 100000004 cycles: 171593234 cumulative IPC: 0.582774 (Simulation time: 0 hr 18 min 52 sec) 

ChampSim completed all CPUs

Region of Interest Statistics

CPU 0 cumulative IPC: 0.582774 instructions: 100000004 cycles: 171593234
cpu0_DTLB TOTAL     ACCESS:   14828754  HIT:   14653588  MISS:     175166
cpu0_DTLB LOAD      ACCESS:    7379657  HIT:    7206632  MISS:     173025
cpu0_DTLB RFO       ACCESS:    7449097  HIT:    7446956  MISS:       2141
cpu0_DTLB PREFETCH  ACCESS:          0  HIT:          0  MISS:          0
cpu0_DTLB WRITEBACK ACCESS:          0  HIT:          0  MISS:          0
cpu0_DTLB TRANSLATION ACCESS:          0  HIT:          0  MISS:          0
cpu0_DTLB PREFETCH  REQUESTED:          0  ISSUED:          0  USEFUL:          0  USELESS:          0
cpu0_DTLB AVERAGE MISS LATENCY: 105.459 cycles
cpu0_ITLB TOTAL     ACCESS:    2820869  HIT:    2820865  MISS:          4
cpu0_ITLB LOAD      ACCESS:    2820869  HIT:    2820865  MISS:          4
cpu0_ITLB RFO       ACCESS:          0  HIT:          0  MISS:          0
cpu0_ITLB PREFETCH  ACCESS:          0  HIT:          0  MISS:          0
cpu0_ITLB WRITEBACK ACCESS:          0  HIT:          0  MISS:          0
cpu0_ITLB TRANSLATION ACCESS:          0  HIT:          0  MISS:          0
cpu0_ITLB PREFETCH  REQUESTED:          0  ISSUED:          0  USEFUL:          0  USELESS:          0
cpu0_ITLB AVERAGE MISS LATENCY: 225 cycles
cpu0_L1I TOTAL     ACCESS:    7051283  HIT:    7051232  MISS:         51
cpu0_L1I LOAD      ACCESS:    7051283  HIT:    7051232  MISS:         51
cpu0_L1I RFO       ACCESS:          0  HIT:          0  MISS:          0
cpu0_L1I PREFETCH  ACCESS:          0  HIT:          0  MISS:          0
cpu0_L1I WRITEBACK ACCESS:          0  HIT:          0  MISS:          0
cpu0_L1I TRANSLATION ACCESS:          0  HIT:          0  MISS:          0
cpu0_L1I PREFETCH  REQUESTED:          0  ISSUED:          0  USEFUL:          0  USELESS:          0
cpu0_L1I AVERAGE MISS LATENCY: 189.392 cycles
cpu0_STLB TOTAL     ACCESS:     175170  HIT:          0  MISS:     175170
cpu0_STLB LOAD      ACCESS:     173029  HIT:          0  MISS:     173029
cpu0_STLB RFO       ACCESS:       2141  HIT:          0  MISS:       2141
cpu0_STLB PREFETCH  ACCESS:          0  HIT:          0  MISS:          0
cpu0_STLB WRITEBACK ACCESS:          0  HIT:          0  MISS:          0
cpu0_STLB TRANSLATION ACCESS:          0  HIT:          0  MISS:          0
cpu0_STLB PREFETCH  REQUESTED:          0  ISSUED:          0  USEFUL:          0  USELESS:          0
cpu0_STLB AVERAGE MISS LATENCY: 96.4621 cycles
cpu0_L1D TOTAL     ACCESS:   28502581  HIT:   26685093  MISS:    1817488
cpu0_L1D LOAD      ACCESS:    6445478  HIT:    4764888  MISS:    1680590
cpu0_L1D RFO       ACCESS:   21881936  HIT:   21745089  MISS:     136847
cpu0_L1D PREFETCH  ACCESS:          0  HIT:          0  MISS:          0
cpu0_L1D WRITEBACK ACCESS:          0  HIT:          0  MISS:          0
cpu0_L1D TRANSLATION ACCESS:     175167  HIT:     175116  MISS:         51
cpu0_L1D PREFETCH  REQUESTED:          0  ISSUED:          0  USEFUL:          0  USELESS:          0
cpu0_L1D AVERAGE MISS LATENCY: 382.249 cycles
cpu0_L2C TOTAL     ACCESS:    2676936  HIT:     859383  MISS:    1817553
cpu0_L2C LOAD      ACCESS:    1680641  HIT:          0  MISS:    1680641
cpu0_L2C RFO       ACCESS:     136847  HIT:          0  MISS:     136847
cpu0_L2C PREFETCH  ACCESS:          0  HIT:          0  MISS:          0
cpu0_L2C WRITEBACK ACCESS:     859397  HIT:     859383  MISS:         14
cpu0_L2C TRANSLATION ACCESS:         51  HIT:          0  MISS:         51
cpu0_L2C PREFETCH  REQUESTED:          0  ISSUED:          0  USEFUL:          0  USELESS:          0
cpu0_L2C AVERAGE MISS LATENCY: 371.193 cycles
LLC TOTAL     ACCESS:    2673600  HIT:      70039  MISS:    2603561
LLC LOAD      ACCESS:    1680641  HIT:      12811  MISS:    1667830
LLC RFO       ACCESS:     136847  HIT:      14315  MISS:     122532
LLC PREFETCH  ACCESS:          0  HIT:          0  MISS:          0
LLC WRITEBACK ACCESS:     856061  HIT:      42910  MISS:     813151
LLC TRANSLATION ACCESS:         51  HIT:          3  MISS:         48
LLC PREFETCH  REQUESTED:          0  ISSUED:          0  USEFUL:          0  USELESS:          0
LLC AVERAGE MISS LATENCY: 244.471 cycles

DRAM Statistics
 CHANNEL 0
 RQ ROW_BUFFER_HIT:     244785  ROW_BUFFER_MISS:    1545601
 DBUS AVG_CONGESTED_CYCLE:    3.97037
 WQ ROW_BUFFER_HIT:      46670  ROW_BUFFER_MISS:     788572  FULL:          0


CPU 0 Branch Prediction Accuracy: 99.9987% MPKI: 0.00058 Average ROB Occupancy at Mispredict: 56.7586
Branch type MPKI
BRANCH_DIRECT_JUMP: 0.0001
BRANCH_INDIRECT: 0
BRANCH_CONDITIONAL: 0.00033
BRANCH_DIRECT_CALL: 8e-05
BRANCH_INDIRECT_CALL: 0
BRANCH_RETURN: 7e-05

