
*** ChampSim Multicore Out-of-Order Simulator ***

Warmup Instructions: 10000000
Simulation Instructions: 100000000
Number of CPUs: 1
Off-chip DRAM Size: 4 GiB Channels: 1 Width: 64-bit Data Rate: 3200 MT/s

VirtualMemory physical capacity: 8588881920 num_ppages: 2096895
VirtualMemory page size: 4096 log2_page_size: 12

CPU 0 runs /datasets/cs240c-wi22-a00-public/data/Assignment2/wrf_1650B.trace.xz
CPU 0 Bimodal branch predictor
Basic BTB sets: 1024 ways: 8 indirect buffer size: 4096 RAS size: 64
Initialize Hawkeye state
Initialize SRRIP state
Heartbeat CPU 0 instructions: 10000001 cycles: 2500100 heartbeat IPC: 3.99984 cumulative IPC: 3.99984 (Simulation time: 0 hr 0 min 25 sec) 

Warmup complete CPU 0 instructions: 10000001 cycles: 2500100 (Simulation time: 0 hr 0 min 25 sec) 

Heartbeat CPU 0 instructions: 20000004 cycles: 12137577 heartbeat IPC: 1.03762 cumulative IPC: 1.03762 (Simulation time: 0 hr 1 min 24 sec) 
Heartbeat CPU 0 instructions: 30000000 cycles: 21774170 heartbeat IPC: 1.03771 cumulative IPC: 1.03766 (Simulation time: 0 hr 2 min 25 sec) 
Heartbeat CPU 0 instructions: 40000002 cycles: 31416863 heartbeat IPC: 1.03705 cumulative IPC: 1.03746 (Simulation time: 0 hr 3 min 26 sec) 
Heartbeat CPU 0 instructions: 50000001 cycles: 47659360 heartbeat IPC: 0.615669 cumulative IPC: 0.885754 (Simulation time: 0 hr 5 min 0 sec) 
Heartbeat CPU 0 instructions: 60000000 cycles: 60642005 heartbeat IPC: 0.770259 cumulative IPC: 0.859965 (Simulation time: 0 hr 6 min 53 sec) 
Heartbeat CPU 0 instructions: 70000002 cycles: 76572168 heartbeat IPC: 0.62774 cumulative IPC: 0.810022 (Simulation time: 0 hr 8 min 24 sec) 
Heartbeat CPU 0 instructions: 80000004 cycles: 92440016 heartbeat IPC: 0.630205 cumulative IPC: 0.778297 (Simulation time: 0 hr 9 min 48 sec) 
Heartbeat CPU 0 instructions: 90000002 cycles: 109875721 heartbeat IPC: 0.573536 cumulative IPC: 0.745048 (Simulation time: 0 hr 11 min 22 sec) 
Heartbeat CPU 0 instructions: 100000004 cycles: 129382368 heartbeat IPC: 0.512646 cumulative IPC: 0.709319 (Simulation time: 0 hr 14 min 45 sec) 
Heartbeat CPU 0 instructions: 110000004 cycles: 147763082 heartbeat IPC: 0.544048 cumulative IPC: 0.688407 (Simulation time: 0 hr 17 min 49 sec) 
Finished CPU 0 instructions: 100000003 cycles: 145262982 cumulative IPC: 0.688407 (Simulation time: 0 hr 17 min 49 sec) 

ChampSim completed all CPUs

Region of Interest Statistics

CPU 0 cumulative IPC: 0.688407 instructions: 100000003 cycles: 145262982
cpu0_DTLB TOTAL     ACCESS:   16109940  HIT:   16079178  MISS:      30762
cpu0_DTLB LOAD      ACCESS:   14690979  HIT:   14666961  MISS:      24018
cpu0_DTLB RFO       ACCESS:    1418961  HIT:    1412217  MISS:       6744
cpu0_DTLB PREFETCH  ACCESS:          0  HIT:          0  MISS:          0
cpu0_DTLB WRITEBACK ACCESS:          0  HIT:          0  MISS:          0
cpu0_DTLB TRANSLATION ACCESS:          0  HIT:          0  MISS:          0
cpu0_DTLB PREFETCH  REQUESTED:          0  ISSUED:          0  USEFUL:          0  USELESS:          0
cpu0_DTLB AVERAGE MISS LATENCY: 149.238 cycles
cpu0_ITLB TOTAL     ACCESS:    6816236  HIT:    6816209  MISS:         27
cpu0_ITLB LOAD      ACCESS:    6816236  HIT:    6816209  MISS:         27
cpu0_ITLB RFO       ACCESS:          0  HIT:          0  MISS:          0
cpu0_ITLB PREFETCH  ACCESS:          0  HIT:          0  MISS:          0
cpu0_ITLB WRITEBACK ACCESS:          0  HIT:          0  MISS:          0
cpu0_ITLB TRANSLATION ACCESS:          0  HIT:          0  MISS:          0
cpu0_ITLB PREFETCH  REQUESTED:          0  ISSUED:          0  USEFUL:          0  USELESS:          0
cpu0_ITLB AVERAGE MISS LATENCY: 240.481 cycles
cpu0_L1I TOTAL     ACCESS:    1672695  HIT:    1672151  MISS:        544
cpu0_L1I LOAD      ACCESS:    1672695  HIT:    1672151  MISS:        544
cpu0_L1I RFO       ACCESS:          0  HIT:          0  MISS:          0
cpu0_L1I PREFETCH  ACCESS:          0  HIT:          0  MISS:          0
cpu0_L1I WRITEBACK ACCESS:          0  HIT:          0  MISS:          0
cpu0_L1I TRANSLATION ACCESS:          0  HIT:          0  MISS:          0
cpu0_L1I PREFETCH  REQUESTED:          0  ISSUED:          0  USEFUL:          0  USELESS:          0
cpu0_L1I AVERAGE MISS LATENCY: 361.671 cycles
cpu0_STLB TOTAL     ACCESS:      30789  HIT:      16559  MISS:      14230
cpu0_STLB LOAD      ACCESS:      24045  HIT:      13005  MISS:      11040
cpu0_STLB RFO       ACCESS:       6744  HIT:       3554  MISS:       3190
cpu0_STLB PREFETCH  ACCESS:          0  HIT:          0  MISS:          0
cpu0_STLB WRITEBACK ACCESS:          0  HIT:          0  MISS:          0
cpu0_STLB TRANSLATION ACCESS:          0  HIT:          0  MISS:          0
cpu0_STLB PREFETCH  REQUESTED:          0  ISSUED:          0  USEFUL:          0  USELESS:          0
cpu0_STLB AVERAGE MISS LATENCY: 303.602 cycles
cpu0_L1D TOTAL     ACCESS:   14587963  HIT:   13555798  MISS:    1032165
cpu0_L1D LOAD      ACCESS:   12301289  HIT:   11483807  MISS:     817482
cpu0_L1D RFO       ACCESS:    2273795  HIT:    2059686  MISS:     214109
cpu0_L1D PREFETCH  ACCESS:          0  HIT:          0  MISS:          0
cpu0_L1D WRITEBACK ACCESS:          0  HIT:          0  MISS:          0
cpu0_L1D TRANSLATION ACCESS:      12879  HIT:      12305  MISS:        574
cpu0_L1D PREFETCH  REQUESTED:          0  ISSUED:          0  USEFUL:          0  USELESS:          0
cpu0_L1D AVERAGE MISS LATENCY: 239.256 cycles
cpu0_L2C TOTAL     ACCESS:    1279069  HIT:     490228  MISS:     788841
cpu0_L2C LOAD      ACCESS:     818015  HIT:     229611  MISS:     588404
cpu0_L2C RFO       ACCESS:     214105  HIT:      13796  MISS:     200309
cpu0_L2C PREFETCH  ACCESS:          0  HIT:          0  MISS:          0
cpu0_L2C WRITEBACK ACCESS:     246375  HIT:     246291  MISS:         84
cpu0_L2C TRANSLATION ACCESS:        574  HIT:        530  MISS:         44
cpu0_L2C PREFETCH  REQUESTED:          0  ISSUED:          0  USEFUL:          0  USELESS:          0
cpu0_L2C AVERAGE MISS LATENCY: 298.896 cycles
LLC TOTAL     ACCESS:    1004524  HIT:     103661  MISS:     900863
LLC LOAD      ACCESS:     588403  HIT:      23386  MISS:     565017
LLC RFO       ACCESS:     200309  HIT:         63  MISS:     200246
LLC PREFETCH  ACCESS:          0  HIT:          0  MISS:          0
LLC WRITEBACK ACCESS:     215768  HIT:      80195  MISS:     135573
LLC TRANSLATION ACCESS:         44  HIT:         17  MISS:         27
LLC PREFETCH  REQUESTED:          0  ISSUED:          0  USEFUL:          0  USELESS:          0
LLC AVERAGE MISS LATENCY: 243.341 cycles

DRAM Statistics
 CHANNEL 0
 RQ ROW_BUFFER_HIT:      26768  ROW_BUFFER_MISS:     738505
 DBUS AVG_CONGESTED_CYCLE:     3.9346
 WQ ROW_BUFFER_HIT:      28785  ROW_BUFFER_MISS:     181775  FULL:          0


CPU 0 Branch Prediction Accuracy: 83.2596% MPKI: 18.9931 Average ROB Occupancy at Mispredict: 253.701
Branch type MPKI
BRANCH_DIRECT_JUMP: 0.0005
BRANCH_INDIRECT: 0
BRANCH_CONDITIONAL: 18.9921
BRANCH_DIRECT_CALL: 0.00023
BRANCH_INDIRECT_CALL: 0
BRANCH_RETURN: 0.00022

