
*** ChampSim Multicore Out-of-Order Simulator ***

Warmup Instructions: 10000000
Simulation Instructions: 100000000
Number of CPUs: 1
Off-chip DRAM Size: 4 GiB Channels: 1 Width: 64-bit Data Rate: 3200 MT/s

VirtualMemory physical capacity: 8588881920 num_ppages: 2096895
VirtualMemory page size: 4096 log2_page_size: 12

CPU 0 runs /datasets/cs240c-wi22-a00-public/data/Assignment2/wrf_1212B.trace.xz
CPU 0 Bimodal branch predictor
Basic BTB sets: 1024 ways: 8 indirect buffer size: 4096 RAS size: 64
Initialize Hawkeye state
Initialize SRRIP state
Heartbeat CPU 0 instructions: 10000004 cycles: 2552145 heartbeat IPC: 3.91827 cumulative IPC: 3.91827 (Simulation time: 0 hr 0 min 32 sec) 

Warmup complete CPU 0 instructions: 10000004 cycles: 2552145 (Simulation time: 0 hr 0 min 32 sec) 

Heartbeat CPU 0 instructions: 20000000 cycles: 9018758 heartbeat IPC: 1.5464 cumulative IPC: 1.5464 (Simulation time: 0 hr 1 min 21 sec) 
Heartbeat CPU 0 instructions: 30000002 cycles: 15456784 heartbeat IPC: 1.55327 cumulative IPC: 1.54983 (Simulation time: 0 hr 2 min 9 sec) 
Heartbeat CPU 0 instructions: 40000002 cycles: 21898602 heartbeat IPC: 1.55236 cumulative IPC: 1.55067 (Simulation time: 0 hr 2 min 56 sec) 
Heartbeat CPU 0 instructions: 50000003 cycles: 28355111 heartbeat IPC: 1.54882 cumulative IPC: 1.55021 (Simulation time: 0 hr 3 min 49 sec) 
Heartbeat CPU 0 instructions: 60000000 cycles: 34834565 heartbeat IPC: 1.54334 cumulative IPC: 1.54883 (Simulation time: 0 hr 4 min 40 sec) 
Heartbeat CPU 0 instructions: 70000002 cycles: 41475529 heartbeat IPC: 1.50581 cumulative IPC: 1.54149 (Simulation time: 0 hr 5 min 31 sec) 
Heartbeat CPU 0 instructions: 80000001 cycles: 48078618 heartbeat IPC: 1.51444 cumulative IPC: 1.53757 (Simulation time: 0 hr 6 min 22 sec) 
Heartbeat CPU 0 instructions: 90000000 cycles: 54574847 heartbeat IPC: 1.53935 cumulative IPC: 1.53779 (Simulation time: 0 hr 7 min 12 sec) 
Heartbeat CPU 0 instructions: 100000003 cycles: 61012946 heartbeat IPC: 1.55325 cumulative IPC: 1.53949 (Simulation time: 0 hr 8 min 1 sec) 
Heartbeat CPU 0 instructions: 110000001 cycles: 67407841 heartbeat IPC: 1.56375 cumulative IPC: 1.54188 (Simulation time: 0 hr 8 min 50 sec) 
Finished CPU 0 instructions: 100000002 cycles: 64855697 cumulative IPC: 1.54188 (Simulation time: 0 hr 8 min 50 sec) 

ChampSim completed all CPUs

Region of Interest Statistics

CPU 0 cumulative IPC: 1.54188 instructions: 100000002 cycles: 64855697
cpu0_DTLB TOTAL     ACCESS:   18869679  HIT:   18629118  MISS:     240561
cpu0_DTLB LOAD      ACCESS:   12070869  HIT:   11914348  MISS:     156521
cpu0_DTLB RFO       ACCESS:    6798810  HIT:    6714770  MISS:      84040
cpu0_DTLB PREFETCH  ACCESS:          0  HIT:          0  MISS:          0
cpu0_DTLB WRITEBACK ACCESS:          0  HIT:          0  MISS:          0
cpu0_DTLB TRANSLATION ACCESS:          0  HIT:          0  MISS:          0
cpu0_DTLB PREFETCH  REQUESTED:          0  ISSUED:          0  USEFUL:          0  USELESS:          0
cpu0_DTLB AVERAGE MISS LATENCY: 14.8177 cycles
cpu0_ITLB TOTAL     ACCESS:    5651195  HIT:    5651195  MISS:          0
cpu0_ITLB LOAD      ACCESS:    5651195  HIT:    5651195  MISS:          0
cpu0_ITLB RFO       ACCESS:          0  HIT:          0  MISS:          0
cpu0_ITLB PREFETCH  ACCESS:          0  HIT:          0  MISS:          0
cpu0_ITLB WRITEBACK ACCESS:          0  HIT:          0  MISS:          0
cpu0_ITLB TRANSLATION ACCESS:          0  HIT:          0  MISS:          0
cpu0_ITLB PREFETCH  REQUESTED:          0  ISSUED:          0  USEFUL:          0  USELESS:          0
cpu0_ITLB AVERAGE MISS LATENCY: -nan cycles
cpu0_L1I TOTAL     ACCESS:    9013453  HIT:    8969644  MISS:      43809
cpu0_L1I LOAD      ACCESS:    9013453  HIT:    8969644  MISS:      43809
cpu0_L1I RFO       ACCESS:          0  HIT:          0  MISS:          0
cpu0_L1I PREFETCH  ACCESS:          0  HIT:          0  MISS:          0
cpu0_L1I WRITEBACK ACCESS:          0  HIT:          0  MISS:          0
cpu0_L1I TRANSLATION ACCESS:          0  HIT:          0  MISS:          0
cpu0_L1I PREFETCH  REQUESTED:          0  ISSUED:          0  USEFUL:          0  USELESS:          0
cpu0_L1I AVERAGE MISS LATENCY: 11.7562 cycles
cpu0_STLB TOTAL     ACCESS:     240561  HIT:     239298  MISS:       1263
cpu0_STLB LOAD      ACCESS:     156521  HIT:     155272  MISS:       1249
cpu0_STLB RFO       ACCESS:      84040  HIT:      84026  MISS:         14
cpu0_STLB PREFETCH  ACCESS:          0  HIT:          0  MISS:          0
cpu0_STLB WRITEBACK ACCESS:          0  HIT:          0  MISS:          0
cpu0_STLB TRANSLATION ACCESS:          0  HIT:          0  MISS:          0
cpu0_STLB PREFETCH  REQUESTED:          0  ISSUED:          0  USEFUL:          0  USELESS:          0
cpu0_STLB AVERAGE MISS LATENCY: 1088.88 cycles
cpu0_L1D TOTAL     ACCESS:   29575760  HIT:   29172155  MISS:     403605
cpu0_L1D LOAD      ACCESS:   14322446  HIT:   13997802  MISS:     324644
cpu0_L1D RFO       ACCESS:   15252337  HIT:   15173602  MISS:      78735
cpu0_L1D PREFETCH  ACCESS:          0  HIT:          0  MISS:          0
cpu0_L1D WRITEBACK ACCESS:          0  HIT:          0  MISS:          0
cpu0_L1D TRANSLATION ACCESS:        977  HIT:        751  MISS:        226
cpu0_L1D PREFETCH  REQUESTED:          0  ISSUED:          0  USEFUL:          0  USELESS:          0
cpu0_L1D AVERAGE MISS LATENCY: 117.634 cycles
cpu0_L2C TOTAL     ACCESS:     589991  HIT:     511518  MISS:      78473
cpu0_L2C LOAD      ACCESS:     368453  HIT:     291143  MISS:      77310
cpu0_L2C RFO       ACCESS:      77262  HIT:      76347  MISS:        915
cpu0_L2C PREFETCH  ACCESS:          0  HIT:          0  MISS:          0
cpu0_L2C WRITEBACK ACCESS:     144050  HIT:     143820  MISS:        230
cpu0_L2C TRANSLATION ACCESS:        226  HIT:        208  MISS:         18
cpu0_L2C PREFETCH  REQUESTED:          0  ISSUED:          0  USEFUL:          0  USELESS:          0
cpu0_L2C AVERAGE MISS LATENCY: 548.311 cycles
LLC TOTAL     ACCESS:     115145  HIT:      18683  MISS:      96462
LLC LOAD      ACCESS:      77310  HIT:        293  MISS:      77017
LLC RFO       ACCESS:        915  HIT:          9  MISS:        906
LLC PREFETCH  ACCESS:          0  HIT:          0  MISS:          0
LLC WRITEBACK ACCESS:      36902  HIT:      18369  MISS:      18533
LLC TRANSLATION ACCESS:         18  HIT:         12  MISS:          6
LLC PREFETCH  REQUESTED:          0  ISSUED:          0  USEFUL:          0  USELESS:          0
LLC AVERAGE MISS LATENCY: 429.024 cycles

DRAM Statistics
 CHANNEL 0
 RQ ROW_BUFFER_HIT:       2540  ROW_BUFFER_MISS:      75389
 DBUS AVG_CONGESTED_CYCLE:    3.96185
 WQ ROW_BUFFER_HIT:        298  ROW_BUFFER_MISS:      21788  FULL:          0


CPU 0 Branch Prediction Accuracy: 97.2223% MPKI: 4.86341 Average ROB Occupancy at Mispredict: 61.3827
Branch type MPKI
BRANCH_DIRECT_JUMP: 0.00019
BRANCH_INDIRECT: 0
BRANCH_CONDITIONAL: 4.86284
BRANCH_DIRECT_CALL: 0.00021
BRANCH_INDIRECT_CALL: 0
BRANCH_RETURN: 0.00017

