
*** ChampSim Multicore Out-of-Order Simulator ***

Warmup Instructions: 10000000
Simulation Instructions: 100000000
Number of CPUs: 1
Off-chip DRAM Size: 4 GiB Channels: 1 Width: 64-bit Data Rate: 3200 MT/s

VirtualMemory physical capacity: 8588881920 num_ppages: 2096895
VirtualMemory page size: 4096 log2_page_size: 12

CPU 0 runs /datasets/cs240c-wi22-a00-public/data/Assignment2/xalancbmk_99B.trace.xz
CPU 0 Bimodal branch predictor
Basic BTB sets: 1024 ways: 8 indirect buffer size: 4096 RAS size: 64
Initialize Hawkeye state
Initialize SRRIP state
Heartbeat CPU 0 instructions: 10000001 cycles: 3058769 heartbeat IPC: 3.26929 cumulative IPC: 3.26929 (Simulation time: 0 hr 0 min 43 sec) 

Warmup complete CPU 0 instructions: 10000001 cycles: 3058769 (Simulation time: 0 hr 0 min 43 sec) 

Heartbeat CPU 0 instructions: 20000003 cycles: 36928458 heartbeat IPC: 0.295249 cumulative IPC: 0.295249 (Simulation time: 0 hr 1 min 54 sec) 
Heartbeat CPU 0 instructions: 30000000 cycles: 75574689 heartbeat IPC: 0.258757 cumulative IPC: 0.275801 (Simulation time: 0 hr 3 min 11 sec) 
Heartbeat CPU 0 instructions: 40000000 cycles: 112662434 heartbeat IPC: 0.269631 cumulative IPC: 0.273713 (Simulation time: 0 hr 4 min 21 sec) 
Heartbeat CPU 0 instructions: 50000001 cycles: 150514108 heartbeat IPC: 0.264189 cumulative IPC: 0.271269 (Simulation time: 0 hr 5 min 33 sec) 
Heartbeat CPU 0 instructions: 60000002 cycles: 187836254 heartbeat IPC: 0.267937 cumulative IPC: 0.270596 (Simulation time: 0 hr 7 min 0 sec) 
Heartbeat CPU 0 instructions: 70000002 cycles: 224497983 heartbeat IPC: 0.272764 cumulative IPC: 0.270955 (Simulation time: 0 hr 9 min 10 sec) 
Heartbeat CPU 0 instructions: 80000001 cycles: 261031772 heartbeat IPC: 0.273719 cumulative IPC: 0.271346 (Simulation time: 0 hr 11 min 15 sec) 
Heartbeat CPU 0 instructions: 90000000 cycles: 299007928 heartbeat IPC: 0.263323 cumulative IPC: 0.270317 (Simulation time: 0 hr 12 min 59 sec) 
Heartbeat CPU 0 instructions: 100000000 cycles: 334493201 heartbeat IPC: 0.281807 cumulative IPC: 0.271547 (Simulation time: 0 hr 14 min 14 sec) 
Heartbeat CPU 0 instructions: 110000001 cycles: 368794384 heartbeat IPC: 0.291535 cumulative IPC: 0.273422 (Simulation time: 0 hr 15 min 27 sec) 
Finished CPU 0 instructions: 100000000 cycles: 365735615 cumulative IPC: 0.273422 (Simulation time: 0 hr 15 min 27 sec) 

ChampSim completed all CPUs

Region of Interest Statistics

CPU 0 cumulative IPC: 0.273422 instructions: 100000000 cycles: 365735615
cpu0_DTLB TOTAL     ACCESS:   22803118  HIT:   22242470  MISS:     560648
cpu0_DTLB LOAD      ACCESS:   21423757  HIT:   20872697  MISS:     551060
cpu0_DTLB RFO       ACCESS:    1379361  HIT:    1369773  MISS:       9588
cpu0_DTLB PREFETCH  ACCESS:          0  HIT:          0  MISS:          0
cpu0_DTLB WRITEBACK ACCESS:          0  HIT:          0  MISS:          0
cpu0_DTLB TRANSLATION ACCESS:          0  HIT:          0  MISS:          0
cpu0_DTLB PREFETCH  REQUESTED:          0  ISSUED:          0  USEFUL:          0  USELESS:          0
cpu0_DTLB AVERAGE MISS LATENCY: 37.5789 cycles
cpu0_ITLB TOTAL     ACCESS:   13331771  HIT:   13304413  MISS:      27358
cpu0_ITLB LOAD      ACCESS:   13331771  HIT:   13304413  MISS:      27358
cpu0_ITLB RFO       ACCESS:          0  HIT:          0  MISS:          0
cpu0_ITLB PREFETCH  ACCESS:          0  HIT:          0  MISS:          0
cpu0_ITLB WRITEBACK ACCESS:          0  HIT:          0  MISS:          0
cpu0_ITLB TRANSLATION ACCESS:          0  HIT:          0  MISS:          0
cpu0_ITLB PREFETCH  REQUESTED:          0  ISSUED:          0  USEFUL:          0  USELESS:          0
cpu0_ITLB AVERAGE MISS LATENCY: 10.9205 cycles
cpu0_L1I TOTAL     ACCESS:     670837  HIT:     563764  MISS:     107073
cpu0_L1I LOAD      ACCESS:     670837  HIT:     563764  MISS:     107073
cpu0_L1I RFO       ACCESS:          0  HIT:          0  MISS:          0
cpu0_L1I PREFETCH  ACCESS:          0  HIT:          0  MISS:          0
cpu0_L1I WRITEBACK ACCESS:          0  HIT:          0  MISS:          0
cpu0_L1I TRANSLATION ACCESS:          0  HIT:          0  MISS:          0
cpu0_L1I PREFETCH  REQUESTED:          0  ISSUED:          0  USEFUL:          0  USELESS:          0
cpu0_L1I AVERAGE MISS LATENCY: 29.9847 cycles
cpu0_STLB TOTAL     ACCESS:     588006  HIT:     172993  MISS:     415013
cpu0_STLB LOAD      ACCESS:     578418  HIT:     164976  MISS:     413442
cpu0_STLB RFO       ACCESS:       9588  HIT:       8017  MISS:       1571
cpu0_STLB PREFETCH  ACCESS:          0  HIT:          0  MISS:          0
cpu0_STLB WRITEBACK ACCESS:          0  HIT:          0  MISS:          0
cpu0_STLB TRANSLATION ACCESS:          0  HIT:          0  MISS:          0
cpu0_STLB PREFETCH  REQUESTED:          0  ISSUED:          0  USEFUL:          0  USELESS:          0
cpu0_STLB AVERAGE MISS LATENCY: 38.659 cycles
cpu0_L1D TOTAL     ACCESS:   17696771  HIT:   14551624  MISS:    3145147
cpu0_L1D LOAD      ACCESS:   15456356  HIT:   12329116  MISS:    3127240
cpu0_L1D RFO       ACCESS:    1870287  HIT:    1858331  MISS:      11956
cpu0_L1D PREFETCH  ACCESS:          0  HIT:          0  MISS:          0
cpu0_L1D WRITEBACK ACCESS:          0  HIT:          0  MISS:          0
cpu0_L1D TRANSLATION ACCESS:     370128  HIT:     364177  MISS:       5951
cpu0_L1D PREFETCH  REQUESTED:          0  ISSUED:          0  USEFUL:          0  USELESS:          0
cpu0_L1D AVERAGE MISS LATENCY: 154.148 cycles
cpu0_L2C TOTAL     ACCESS:    3280027  HIT:     136202  MISS:    3143825
cpu0_L2C LOAD      ACCESS:    3234303  HIT:     101484  MISS:    3132819
cpu0_L2C RFO       ACCESS:      11952  HIT:       2662  MISS:       9290
cpu0_L2C PREFETCH  ACCESS:          0  HIT:          0  MISS:          0
cpu0_L2C WRITEBACK ACCESS:      27821  HIT:      27432  MISS:        389
cpu0_L2C TRANSLATION ACCESS:       5951  HIT:       4624  MISS:       1327
cpu0_L2C PREFETCH  REQUESTED:          0  ISSUED:          0  USEFUL:          0  USELESS:          0
cpu0_L2C AVERAGE MISS LATENCY: 143.699 cycles
LLC TOTAL     ACCESS:    3163844  HIT:     689174  MISS:    2474670
LLC LOAD      ACCESS:    3132819  HIT:     666111  MISS:    2466708
LLC RFO       ACCESS:       9289  HIT:       4609  MISS:       4680
LLC PREFETCH  ACCESS:          0  HIT:          0  MISS:          0
LLC WRITEBACK ACCESS:      20409  HIT:      17877  MISS:       2532
LLC TRANSLATION ACCESS:       1327  HIT:        577  MISS:        750
LLC PREFETCH  REQUESTED:          0  ISSUED:          0  USEFUL:          0  USELESS:          0
LLC AVERAGE MISS LATENCY: 155.88 cycles

DRAM Statistics
 CHANNEL 0
 RQ ROW_BUFFER_HIT:     639749  ROW_BUFFER_MISS:    1832388
 DBUS AVG_CONGESTED_CYCLE:    3.91553
 WQ ROW_BUFFER_HIT:       3195  ROW_BUFFER_MISS:       3288  FULL:          0


CPU 0 Branch Prediction Accuracy: 90.7444% MPKI: 27.9345 Average ROB Occupancy at Mispredict: 19.333
Branch type MPKI
BRANCH_DIRECT_JUMP: 0.00034
BRANCH_INDIRECT: 0.0087
BRANCH_CONDITIONAL: 27.8577
BRANCH_DIRECT_CALL: 0.00024
BRANCH_INDIRECT_CALL: 0.02508
BRANCH_RETURN: 0.04245

