
*** ChampSim Multicore Out-of-Order Simulator ***

Warmup Instructions: 10000000
Simulation Instructions: 100000000
Number of CPUs: 1
Off-chip DRAM Size: 4 GiB Channels: 1 Width: 64-bit Data Rate: 3200 MT/s

VirtualMemory physical capacity: 8588881920 num_ppages: 2096895
VirtualMemory page size: 4096 log2_page_size: 12

CPU 0 runs /datasets/cs240c-wi22-a00-public/data/Assignment2/zeusmp_600B.trace.xz
CPU 0 Bimodal branch predictor
Basic BTB sets: 1024 ways: 8 indirect buffer size: 4096 RAS size: 64
Initialize Hawkeye state
Initialize SRRIP state
Heartbeat CPU 0 instructions: 10000001 cycles: 2573841 heartbeat IPC: 3.88524 cumulative IPC: 3.88524 (Simulation time: 0 hr 0 min 29 sec) 

Warmup complete CPU 0 instructions: 10000001 cycles: 2573841 (Simulation time: 0 hr 0 min 29 sec) 

Heartbeat CPU 0 instructions: 20000001 cycles: 7446797 heartbeat IPC: 2.05214 cumulative IPC: 2.05214 (Simulation time: 0 hr 1 min 12 sec) 
Heartbeat CPU 0 instructions: 30000004 cycles: 12926512 heartbeat IPC: 1.82491 cumulative IPC: 1.93187 (Simulation time: 0 hr 1 min 55 sec) 
Heartbeat CPU 0 instructions: 40000000 cycles: 18423078 heartbeat IPC: 1.81932 cumulative IPC: 1.89284 (Simulation time: 0 hr 2 min 36 sec) 
Heartbeat CPU 0 instructions: 50000001 cycles: 23887287 heartbeat IPC: 1.83009 cumulative IPC: 1.87675 (Simulation time: 0 hr 3 min 21 sec) 
Heartbeat CPU 0 instructions: 60000000 cycles: 29389547 heartbeat IPC: 1.81743 cumulative IPC: 1.86458 (Simulation time: 0 hr 4 min 4 sec) 
Heartbeat CPU 0 instructions: 70000003 cycles: 34882548 heartbeat IPC: 1.8205 cumulative IPC: 1.85708 (Simulation time: 0 hr 5 min 13 sec) 
Heartbeat CPU 0 instructions: 80000000 cycles: 40375695 heartbeat IPC: 1.82045 cumulative IPC: 1.85176 (Simulation time: 0 hr 6 min 40 sec) 
Heartbeat CPU 0 instructions: 90000001 cycles: 45866716 heartbeat IPC: 1.82116 cumulative IPC: 1.84788 (Simulation time: 0 hr 8 min 3 sec) 
Heartbeat CPU 0 instructions: 100000001 cycles: 51355042 heartbeat IPC: 1.82205 cumulative IPC: 1.84497 (Simulation time: 0 hr 9 min 23 sec) 
Heartbeat CPU 0 instructions: 110000003 cycles: 56845698 heartbeat IPC: 1.82128 cumulative IPC: 1.84258 (Simulation time: 0 hr 10 min 38 sec) 
Finished CPU 0 instructions: 100000002 cycles: 54271857 cumulative IPC: 1.84258 (Simulation time: 0 hr 10 min 38 sec) 

ChampSim completed all CPUs

Region of Interest Statistics

CPU 0 cumulative IPC: 1.84258 instructions: 100000002 cycles: 54271857
cpu0_DTLB TOTAL     ACCESS:   17107024  HIT:   16951655  MISS:     155369
cpu0_DTLB LOAD      ACCESS:   12987997  HIT:   12859670  MISS:     128327
cpu0_DTLB RFO       ACCESS:    4119027  HIT:    4091985  MISS:      27042
cpu0_DTLB PREFETCH  ACCESS:          0  HIT:          0  MISS:          0
cpu0_DTLB WRITEBACK ACCESS:          0  HIT:          0  MISS:          0
cpu0_DTLB TRANSLATION ACCESS:          0  HIT:          0  MISS:          0
cpu0_DTLB PREFETCH  REQUESTED:          0  ISSUED:          0  USEFUL:          0  USELESS:          0
cpu0_DTLB AVERAGE MISS LATENCY: 15.4607 cycles
cpu0_ITLB TOTAL     ACCESS:    2610835  HIT:    2610832  MISS:          3
cpu0_ITLB LOAD      ACCESS:    2610835  HIT:    2610832  MISS:          3
cpu0_ITLB RFO       ACCESS:          0  HIT:          0  MISS:          0
cpu0_ITLB PREFETCH  ACCESS:          0  HIT:          0  MISS:          0
cpu0_ITLB WRITEBACK ACCESS:          0  HIT:          0  MISS:          0
cpu0_ITLB TRANSLATION ACCESS:          0  HIT:          0  MISS:          0
cpu0_ITLB PREFETCH  REQUESTED:          0  ISSUED:          0  USEFUL:          0  USELESS:          0
cpu0_ITLB AVERAGE MISS LATENCY: 322 cycles
cpu0_L1I TOTAL     ACCESS:    5803750  HIT:    5803647  MISS:        103
cpu0_L1I LOAD      ACCESS:    5803750  HIT:    5803647  MISS:        103
cpu0_L1I RFO       ACCESS:          0  HIT:          0  MISS:          0
cpu0_L1I PREFETCH  ACCESS:          0  HIT:          0  MISS:          0
cpu0_L1I WRITEBACK ACCESS:          0  HIT:          0  MISS:          0
cpu0_L1I TRANSLATION ACCESS:          0  HIT:          0  MISS:          0
cpu0_L1I PREFETCH  REQUESTED:          0  ISSUED:          0  USEFUL:          0  USELESS:          0
cpu0_L1I AVERAGE MISS LATENCY: 256.592 cycles
cpu0_STLB TOTAL     ACCESS:     155372  HIT:     150381  MISS:       4991
cpu0_STLB LOAD      ACCESS:     128330  HIT:     123391  MISS:       4939
cpu0_STLB RFO       ACCESS:      27042  HIT:      26990  MISS:         52
cpu0_STLB PREFETCH  ACCESS:          0  HIT:          0  MISS:          0
cpu0_STLB WRITEBACK ACCESS:          0  HIT:          0  MISS:          0
cpu0_STLB TRANSLATION ACCESS:          0  HIT:          0  MISS:          0
cpu0_STLB PREFETCH  REQUESTED:          0  ISSUED:          0  USEFUL:          0  USELESS:          0
cpu0_STLB AVERAGE MISS LATENCY: 193.04 cycles
cpu0_L1D TOTAL     ACCESS:   20412570  HIT:   20091652  MISS:     320918
cpu0_L1D LOAD      ACCESS:   13175557  HIT:   12858413  MISS:     317144
cpu0_L1D RFO       ACCESS:    7232023  HIT:    7228576  MISS:       3447
cpu0_L1D PREFETCH  ACCESS:          0  HIT:          0  MISS:          0
cpu0_L1D WRITEBACK ACCESS:          0  HIT:          0  MISS:          0
cpu0_L1D TRANSLATION ACCESS:       4990  HIT:       4663  MISS:        327
cpu0_L1D PREFETCH  REQUESTED:          0  ISSUED:          0  USEFUL:          0  USELESS:          0
cpu0_L1D AVERAGE MISS LATENCY: 183.544 cycles
cpu0_L2C TOTAL     ACCESS:     383991  HIT:      66698  MISS:     317293
cpu0_L2C LOAD      ACCESS:     317247  HIT:       3425  MISS:     313822
cpu0_L2C RFO       ACCESS:       3447  HIT:          1  MISS:       3446
cpu0_L2C PREFETCH  ACCESS:          0  HIT:          0  MISS:          0
cpu0_L2C WRITEBACK ACCESS:      62970  HIT:      62970  MISS:          0
cpu0_L2C TRANSLATION ACCESS:        327  HIT:        302  MISS:         25
cpu0_L2C PREFETCH  REQUESTED:          0  ISSUED:          0  USEFUL:          0  USELESS:          0
cpu0_L2C AVERAGE MISS LATENCY: 174.582 cycles
LLC TOTAL     ACCESS:     380236  HIT:      14119  MISS:     366117
LLC LOAD      ACCESS:     313822  HIT:       5094  MISS:     308728
LLC RFO       ACCESS:       3446  HIT:          0  MISS:       3446
LLC PREFETCH  ACCESS:          0  HIT:          0  MISS:          0
LLC WRITEBACK ACCESS:      62943  HIT:       9009  MISS:      53934
LLC TRANSLATION ACCESS:         25  HIT:         16  MISS:          9
LLC PREFETCH  REQUESTED:          0  ISSUED:          0  USEFUL:          0  USELESS:          0
LLC AVERAGE MISS LATENCY: 133.101 cycles

DRAM Statistics
 CHANNEL 0
 RQ ROW_BUFFER_HIT:      60101  ROW_BUFFER_MISS:     252083
 DBUS AVG_CONGESTED_CYCLE:    3.73862
 WQ ROW_BUFFER_HIT:      19423  ROW_BUFFER_MISS:      40637  FULL:          0


CPU 0 Branch Prediction Accuracy: 96.8332% MPKI: 1.13776 Average ROB Occupancy at Mispredict: 151.902
Branch type MPKI
BRANCH_DIRECT_JUMP: 3e-05
BRANCH_INDIRECT: 0
BRANCH_CONDITIONAL: 1.13771
BRANCH_DIRECT_CALL: 1e-05
BRANCH_INDIRECT_CALL: 0
BRANCH_RETURN: 1e-05

