
*** ChampSim Multicore Out-of-Order Simulator ***

Warmup Instructions: 10000000
Simulation Instructions: 100000000
Number of CPUs: 1
Off-chip DRAM Size: 4 GiB Channels: 1 Width: 64-bit Data Rate: 3200 MT/s

VirtualMemory physical capacity: 8588881920 num_ppages: 2096895
VirtualMemory page size: 4096 log2_page_size: 12

CPU 0 runs /datasets/cs240c-wi22-a00-public/data/Assignment2/astar_163B.trace.xz
CPU 0 Bimodal branch predictor
Basic BTB sets: 1024 ways: 8 indirect buffer size: 4096 RAS size: 64
Initialize Hawkeye state
Initialize SRRIP state
Heartbeat CPU 0 instructions: 10000003 cycles: 2500067 heartbeat IPC: 3.99989 cumulative IPC: 3.99989 (Simulation time: 0 hr 0 min 53 sec) 

Warmup complete CPU 0 instructions: 10000003 cycles: 2500067 (Simulation time: 0 hr 0 min 53 sec) 

Heartbeat CPU 0 instructions: 20000001 cycles: 19940223 heartbeat IPC: 0.573389 cumulative IPC: 0.573389 (Simulation time: 0 hr 2 min 15 sec) 
Heartbeat CPU 0 instructions: 30000002 cycles: 35868330 heartbeat IPC: 0.627821 cumulative IPC: 0.599372 (Simulation time: 0 hr 3 min 31 sec) 
Heartbeat CPU 0 instructions: 40000000 cycles: 50626701 heartbeat IPC: 0.677581 cumulative IPC: 0.623355 (Simulation time: 0 hr 4 min 42 sec) 
Heartbeat CPU 0 instructions: 50000001 cycles: 65706190 heartbeat IPC: 0.663153 cumulative IPC: 0.63285 (Simulation time: 0 hr 5 min 55 sec) 
Heartbeat CPU 0 instructions: 60000003 cycles: 80579876 heartbeat IPC: 0.672328 cumulative IPC: 0.64037 (Simulation time: 0 hr 7 min 5 sec) 
Heartbeat CPU 0 instructions: 70000002 cycles: 95608259 heartbeat IPC: 0.665408 cumulative IPC: 0.644412 (Simulation time: 0 hr 8 min 12 sec) 
Heartbeat CPU 0 instructions: 80000000 cycles: 110750979 heartbeat IPC: 0.660383 cumulative IPC: 0.646646 (Simulation time: 0 hr 9 min 12 sec) 
Heartbeat CPU 0 instructions: 90000001 cycles: 125354255 heartbeat IPC: 0.684778 cumulative IPC: 0.651178 (Simulation time: 0 hr 10 min 10 sec) 
Heartbeat CPU 0 instructions: 100000003 cycles: 140193467 heartbeat IPC: 0.67389 cumulative IPC: 0.653626 (Simulation time: 0 hr 11 min 4 sec) 
Heartbeat CPU 0 instructions: 110000000 cycles: 155200801 heartbeat IPC: 0.666341 cumulative IPC: 0.654876 (Simulation time: 0 hr 11 min 57 sec) 
Finished CPU 0 instructions: 100000000 cycles: 152700735 cumulative IPC: 0.654876 (Simulation time: 0 hr 11 min 57 sec) 

ChampSim completed all CPUs

Region of Interest Statistics

CPU 0 cumulative IPC: 0.654876 instructions: 100000000 cycles: 152700735
cpu0_DTLB TOTAL     ACCESS:   21351337  HIT:   21042370  MISS:     308967
cpu0_DTLB LOAD      ACCESS:   16587424  HIT:   16286429  MISS:     300995
cpu0_DTLB RFO       ACCESS:    4763913  HIT:    4755941  MISS:       7972
cpu0_DTLB PREFETCH  ACCESS:          0  HIT:          0  MISS:          0
cpu0_DTLB WRITEBACK ACCESS:          0  HIT:          0  MISS:          0
cpu0_DTLB TRANSLATION ACCESS:          0  HIT:          0  MISS:          0
cpu0_DTLB PREFETCH  REQUESTED:          0  ISSUED:          0  USEFUL:          0  USELESS:          0
cpu0_DTLB AVERAGE MISS LATENCY: 10.2789 cycles
cpu0_ITLB TOTAL     ACCESS:   11988895  HIT:   11988888  MISS:          7
cpu0_ITLB LOAD      ACCESS:   11988895  HIT:   11988888  MISS:          7
cpu0_ITLB RFO       ACCESS:          0  HIT:          0  MISS:          0
cpu0_ITLB PREFETCH  ACCESS:          0  HIT:          0  MISS:          0
cpu0_ITLB WRITEBACK ACCESS:          0  HIT:          0  MISS:          0
cpu0_ITLB TRANSLATION ACCESS:          0  HIT:          0  MISS:          0
cpu0_ITLB PREFETCH  REQUESTED:          0  ISSUED:          0  USEFUL:          0  USELESS:          0
cpu0_ITLB AVERAGE MISS LATENCY: 388.714 cycles
cpu0_L1I TOTAL     ACCESS:      30485  HIT:      30399  MISS:         86
cpu0_L1I LOAD      ACCESS:      30485  HIT:      30399  MISS:         86
cpu0_L1I RFO       ACCESS:          0  HIT:          0  MISS:          0
cpu0_L1I PREFETCH  ACCESS:          0  HIT:          0  MISS:          0
cpu0_L1I WRITEBACK ACCESS:          0  HIT:          0  MISS:          0
cpu0_L1I TRANSLATION ACCESS:          0  HIT:          0  MISS:          0
cpu0_L1I PREFETCH  REQUESTED:          0  ISSUED:          0  USEFUL:          0  USELESS:          0
cpu0_L1I AVERAGE MISS LATENCY: 277.279 cycles
cpu0_STLB TOTAL     ACCESS:     308974  HIT:     291504  MISS:      17470
cpu0_STLB LOAD      ACCESS:     301002  HIT:     285664  MISS:      15338
cpu0_STLB RFO       ACCESS:       7972  HIT:       5840  MISS:       2132
cpu0_STLB PREFETCH  ACCESS:          0  HIT:          0  MISS:          0
cpu0_STLB WRITEBACK ACCESS:          0  HIT:          0  MISS:          0
cpu0_STLB TRANSLATION ACCESS:          0  HIT:          0  MISS:          0
cpu0_STLB PREFETCH  REQUESTED:          0  ISSUED:          0  USEFUL:          0  USELESS:          0
cpu0_STLB AVERAGE MISS LATENCY: 22.6397 cycles
cpu0_L1D TOTAL     ACCESS:   27130112  HIT:   26715714  MISS:     414398
cpu0_L1D LOAD      ACCESS:   16909645  HIT:   16576307  MISS:     333338
cpu0_L1D RFO       ACCESS:   10203053  HIT:   10122254  MISS:      80799
cpu0_L1D PREFETCH  ACCESS:          0  HIT:          0  MISS:          0
cpu0_L1D WRITEBACK ACCESS:          0  HIT:          0  MISS:          0
cpu0_L1D TRANSLATION ACCESS:      17414  HIT:      17153  MISS:        261
cpu0_L1D PREFETCH  REQUESTED:          0  ISSUED:          0  USEFUL:          0  USELESS:          0
cpu0_L1D AVERAGE MISS LATENCY: 66.9515 cycles
cpu0_L2C TOTAL     ACCESS:     633347  HIT:     441389  MISS:     191958
cpu0_L2C LOAD      ACCESS:     333357  HIT:     209317  MISS:     124040
cpu0_L2C RFO       ACCESS:      80799  HIT:      12919  MISS:      67880
cpu0_L2C PREFETCH  ACCESS:          0  HIT:          0  MISS:          0
cpu0_L2C WRITEBACK ACCESS:     218930  HIT:     218926  MISS:          4
cpu0_L2C TRANSLATION ACCESS:        261  HIT:        227  MISS:         34
cpu0_L2C PREFETCH  REQUESTED:          0  ISSUED:          0  USEFUL:          0  USELESS:          0
cpu0_L2C AVERAGE MISS LATENCY: 120.91 cycles
LLC TOTAL     ACCESS:     335199  HIT:     163537  MISS:     171662
LLC LOAD      ACCESS:     124039  HIT:      35600  MISS:      88439
LLC RFO       ACCESS:      67880  HIT:      33340  MISS:      34540
LLC PREFETCH  ACCESS:          0  HIT:          0  MISS:          0
LLC WRITEBACK ACCESS:     143246  HIT:      94577  MISS:      48669
LLC TRANSLATION ACCESS:         34  HIT:         20  MISS:         14
LLC PREFETCH  REQUESTED:          0  ISSUED:          0  USEFUL:          0  USELESS:          0
LLC AVERAGE MISS LATENCY: 111.723 cycles

DRAM Statistics
 CHANNEL 0
 RQ ROW_BUFFER_HIT:      11160  ROW_BUFFER_MISS:     111830
 DBUS AVG_CONGESTED_CYCLE:    3.83621
 WQ ROW_BUFFER_HIT:       7115  ROW_BUFFER_MISS:      72305  FULL:          0


CPU 0 Branch Prediction Accuracy: 70.0225% MPKI: 43.9041 Average ROB Occupancy at Mispredict: 12.8159
Branch type MPKI
BRANCH_DIRECT_JUMP: 0.00019
BRANCH_INDIRECT: 0
BRANCH_CONDITIONAL: 43.9037
BRANCH_DIRECT_CALL: 0.00012
BRANCH_INDIRECT_CALL: 0
BRANCH_RETURN: 0.00012

