
*** ChampSim Multicore Out-of-Order Simulator ***

Warmup Instructions: 10000000
Simulation Instructions: 100000000
Number of CPUs: 1
Off-chip DRAM Size: 4 GiB Channels: 1 Width: 64-bit Data Rate: 3200 MT/s

VirtualMemory physical capacity: 8588881920 num_ppages: 2096895
VirtualMemory page size: 4096 log2_page_size: 12

CPU 0 runs /datasets/cs240c-wi22-a00-public/data/Assignment2/bzip2_281B.trace.xz
CPU 0 Bimodal branch predictor
Basic BTB sets: 1024 ways: 8 indirect buffer size: 4096 RAS size: 64
Initialize Hawkeye state
Initialize SRRIP state
Heartbeat CPU 0 instructions: 10000004 cycles: 3227471 heartbeat IPC: 3.0984 cumulative IPC: 3.0984 (Simulation time: 0 hr 0 min 59 sec) 

Warmup complete CPU 0 instructions: 10000004 cycles: 3227471 (Simulation time: 0 hr 0 min 59 sec) 

Heartbeat CPU 0 instructions: 20000000 cycles: 13843830 heartbeat IPC: 0.941942 cumulative IPC: 0.941942 (Simulation time: 0 hr 2 min 3 sec) 
Heartbeat CPU 0 instructions: 30000001 cycles: 25873212 heartbeat IPC: 0.831298 cumulative IPC: 0.883168 (Simulation time: 0 hr 3 min 23 sec) 
Heartbeat CPU 0 instructions: 40000002 cycles: 30522521 heartbeat IPC: 2.15086 cumulative IPC: 1.0991 (Simulation time: 0 hr 3 min 55 sec) 
Heartbeat CPU 0 instructions: 50000002 cycles: 35740573 heartbeat IPC: 1.91642 cumulative IPC: 1.23027 (Simulation time: 0 hr 4 min 29 sec) 
Heartbeat CPU 0 instructions: 60000000 cycles: 41009728 heartbeat IPC: 1.89784 cumulative IPC: 1.32337 (Simulation time: 0 hr 5 min 9 sec) 
Heartbeat CPU 0 instructions: 70000004 cycles: 48535099 heartbeat IPC: 1.32884 cumulative IPC: 1.32428 (Simulation time: 0 hr 6 min 9 sec) 
Heartbeat CPU 0 instructions: 80000003 cycles: 56150432 heartbeat IPC: 1.31314 cumulative IPC: 1.32268 (Simulation time: 0 hr 7 min 0 sec) 
Heartbeat CPU 0 instructions: 90000003 cycles: 62496083 heartbeat IPC: 1.57588 cumulative IPC: 1.34979 (Simulation time: 0 hr 7 min 37 sec) 
Heartbeat CPU 0 instructions: 100000001 cycles: 69099534 heartbeat IPC: 1.51436 cumulative IPC: 1.36628 (Simulation time: 0 hr 8 min 17 sec) 
Heartbeat CPU 0 instructions: 110000000 cycles: 75832184 heartbeat IPC: 1.4853 cumulative IPC: 1.37732 (Simulation time: 0 hr 8 min 56 sec) 
Finished CPU 0 instructions: 100000000 cycles: 72604715 cumulative IPC: 1.37732 (Simulation time: 0 hr 8 min 56 sec) 

ChampSim completed all CPUs

Region of Interest Statistics

CPU 0 cumulative IPC: 1.37732 instructions: 100000000 cycles: 72604715
cpu0_DTLB TOTAL     ACCESS:   19636324  HIT:   18877709  MISS:     758615
cpu0_DTLB LOAD      ACCESS:   13786121  HIT:   13140466  MISS:     645655
cpu0_DTLB RFO       ACCESS:    5850203  HIT:    5737243  MISS:     112960
cpu0_DTLB PREFETCH  ACCESS:          0  HIT:          0  MISS:          0
cpu0_DTLB WRITEBACK ACCESS:          0  HIT:          0  MISS:          0
cpu0_DTLB TRANSLATION ACCESS:          0  HIT:          0  MISS:          0
cpu0_DTLB PREFETCH  REQUESTED:          0  ISSUED:          0  USEFUL:          0  USELESS:          0
cpu0_DTLB AVERAGE MISS LATENCY: 9.33286 cycles
cpu0_ITLB TOTAL     ACCESS:    6406676  HIT:    6406662  MISS:         14
cpu0_ITLB LOAD      ACCESS:    6406676  HIT:    6406662  MISS:         14
cpu0_ITLB RFO       ACCESS:          0  HIT:          0  MISS:          0
cpu0_ITLB PREFETCH  ACCESS:          0  HIT:          0  MISS:          0
cpu0_ITLB WRITEBACK ACCESS:          0  HIT:          0  MISS:          0
cpu0_ITLB TRANSLATION ACCESS:          0  HIT:          0  MISS:          0
cpu0_ITLB PREFETCH  REQUESTED:          0  ISSUED:          0  USEFUL:          0  USELESS:          0
cpu0_ITLB AVERAGE MISS LATENCY: 222.429 cycles
cpu0_L1I TOTAL     ACCESS:    2685682  HIT:    2685328  MISS:        354
cpu0_L1I LOAD      ACCESS:    2685682  HIT:    2685328  MISS:        354
cpu0_L1I RFO       ACCESS:          0  HIT:          0  MISS:          0
cpu0_L1I PREFETCH  ACCESS:          0  HIT:          0  MISS:          0
cpu0_L1I WRITEBACK ACCESS:          0  HIT:          0  MISS:          0
cpu0_L1I TRANSLATION ACCESS:          0  HIT:          0  MISS:          0
cpu0_L1I PREFETCH  REQUESTED:          0  ISSUED:          0  USEFUL:          0  USELESS:          0
cpu0_L1I AVERAGE MISS LATENCY: 159.76 cycles
cpu0_STLB TOTAL     ACCESS:     758629  HIT:     757547  MISS:       1082
cpu0_STLB LOAD      ACCESS:     645669  HIT:     644762  MISS:        907
cpu0_STLB RFO       ACCESS:     112960  HIT:     112785  MISS:        175
cpu0_STLB PREFETCH  ACCESS:          0  HIT:          0  MISS:          0
cpu0_STLB WRITEBACK ACCESS:          0  HIT:          0  MISS:          0
cpu0_STLB TRANSLATION ACCESS:          0  HIT:          0  MISS:          0
cpu0_STLB PREFETCH  REQUESTED:          0  ISSUED:          0  USEFUL:          0  USELESS:          0
cpu0_STLB AVERAGE MISS LATENCY: 205.412 cycles
cpu0_L1D TOTAL     ACCESS:   23563835  HIT:   21964742  MISS:    1599093
cpu0_L1D LOAD      ACCESS:   13788785  HIT:   12395817  MISS:    1392968
cpu0_L1D RFO       ACCESS:    9773982  HIT:    9568362  MISS:     205620
cpu0_L1D PREFETCH  ACCESS:          0  HIT:          0  MISS:          0
cpu0_L1D WRITEBACK ACCESS:          0  HIT:          0  MISS:          0
cpu0_L1D TRANSLATION ACCESS:       1068  HIT:        563  MISS:        505
cpu0_L1D PREFETCH  REQUESTED:          0  ISSUED:          0  USEFUL:          0  USELESS:          0
cpu0_L1D AVERAGE MISS LATENCY: 89.4512 cycles
cpu0_L2C TOTAL     ACCESS:    1813738  HIT:     911803  MISS:     901935
cpu0_L2C LOAD      ACCESS:    1393318  HIT:     649118  MISS:     744200
cpu0_L2C RFO       ACCESS:     205613  HIT:      48104  MISS:     157509
cpu0_L2C PREFETCH  ACCESS:          0  HIT:          0  MISS:          0
cpu0_L2C WRITEBACK ACCESS:     214302  HIT:     214106  MISS:        196
cpu0_L2C TRANSLATION ACCESS:        505  HIT:        475  MISS:         30
cpu0_L2C PREFETCH  REQUESTED:          0  ISSUED:          0  USEFUL:          0  USELESS:          0
cpu0_L2C AVERAGE MISS LATENCY: 139.011 cycles
LLC TOTAL     ACCESS:    1060185  HIT:     830983  MISS:     229202
LLC LOAD      ACCESS:     744199  HIT:     610444  MISS:     133755
LLC RFO       ACCESS:     157495  HIT:      85478  MISS:      72017
LLC PREFETCH  ACCESS:          0  HIT:          0  MISS:          0
LLC WRITEBACK ACCESS:     158461  HIT:     135046  MISS:      23415
LLC TRANSLATION ACCESS:         30  HIT:         15  MISS:         15
LLC PREFETCH  REQUESTED:          0  ISSUED:          0  USEFUL:          0  USELESS:          0
LLC AVERAGE MISS LATENCY: 464.393 cycles

DRAM Statistics
 CHANNEL 0
 RQ ROW_BUFFER_HIT:      55911  ROW_BUFFER_MISS:     149547
 DBUS AVG_CONGESTED_CYCLE:    3.98321
 WQ ROW_BUFFER_HIT:       6783  ROW_BUFFER_MISS:      91297  FULL:        539


CPU 0 Branch Prediction Accuracy: 91.2056% MPKI: 12.1715 Average ROB Occupancy at Mispredict: 73.7583
Branch type MPKI
BRANCH_DIRECT_JUMP: 0.00059
BRANCH_INDIRECT: 0
BRANCH_CONDITIONAL: 12.1706
BRANCH_DIRECT_CALL: 0.00014
BRANCH_INDIRECT_CALL: 0
BRANCH_RETURN: 0.00019

