
*** ChampSim Multicore Out-of-Order Simulator ***

Warmup Instructions: 10000000
Simulation Instructions: 100000000
Number of CPUs: 1
Off-chip DRAM Size: 4 GiB Channels: 1 Width: 64-bit Data Rate: 3200 MT/s

VirtualMemory physical capacity: 8588881920 num_ppages: 2096895
VirtualMemory page size: 4096 log2_page_size: 12

CPU 0 runs /datasets/cs240c-wi22-a00-public/data/Assignment2/bzip2_259B.trace.xz
CPU 0 Bimodal branch predictor
Basic BTB sets: 1024 ways: 8 indirect buffer size: 4096 RAS size: 64
Initialize Hawkeye state
Initialize SRRIP state
Heartbeat CPU 0 instructions: 10000002 cycles: 2535454 heartbeat IPC: 3.94407 cumulative IPC: 3.94407 (Simulation time: 0 hr 0 min 55 sec) 

Warmup complete CPU 0 instructions: 10000002 cycles: 2535454 (Simulation time: 0 hr 0 min 55 sec) 

Heartbeat CPU 0 instructions: 20000003 cycles: 9054376 heartbeat IPC: 1.534 cumulative IPC: 1.534 (Simulation time: 0 hr 2 min 59 sec) 
Heartbeat CPU 0 instructions: 30000002 cycles: 14611483 heartbeat IPC: 1.7995 cumulative IPC: 1.65617 (Simulation time: 0 hr 4 min 44 sec) 
Heartbeat CPU 0 instructions: 40000003 cycles: 21348329 heartbeat IPC: 1.48437 cumulative IPC: 1.59465 (Simulation time: 0 hr 6 min 15 sec) 
Heartbeat CPU 0 instructions: 50000003 cycles: 29552862 heartbeat IPC: 1.21884 cumulative IPC: 1.48053 (Simulation time: 0 hr 7 min 14 sec) 
Heartbeat CPU 0 instructions: 60000001 cycles: 37412265 heartbeat IPC: 1.27236 cumulative IPC: 1.43362 (Simulation time: 0 hr 8 min 11 sec) 
Heartbeat CPU 0 instructions: 70000004 cycles: 43727093 heartbeat IPC: 1.58357 cumulative IPC: 1.45661 (Simulation time: 0 hr 9 min 41 sec) 
Heartbeat CPU 0 instructions: 80000004 cycles: 50789206 heartbeat IPC: 1.41601 cumulative IPC: 1.45066 (Simulation time: 0 hr 11 min 14 sec) 
Heartbeat CPU 0 instructions: 90000001 cycles: 57098877 heartbeat IPC: 1.58487 cumulative IPC: 1.46618 (Simulation time: 0 hr 12 min 18 sec) 
Heartbeat CPU 0 instructions: 100000000 cycles: 65493925 heartbeat IPC: 1.19118 cumulative IPC: 1.42951 (Simulation time: 0 hr 12 min 54 sec) 
Heartbeat CPU 0 instructions: 110000000 cycles: 73473863 heartbeat IPC: 1.25314 cumulative IPC: 1.40967 (Simulation time: 0 hr 13 min 30 sec) 
Finished CPU 0 instructions: 100000003 cycles: 70938414 cumulative IPC: 1.40967 (Simulation time: 0 hr 13 min 30 sec) 

ChampSim completed all CPUs

Region of Interest Statistics

CPU 0 cumulative IPC: 1.40967 instructions: 100000003 cycles: 70938414
cpu0_DTLB TOTAL     ACCESS:   18627590  HIT:   17966822  MISS:     660768
cpu0_DTLB LOAD      ACCESS:    9569659  HIT:    8912813  MISS:     656846
cpu0_DTLB RFO       ACCESS:    9057931  HIT:    9054009  MISS:       3922
cpu0_DTLB PREFETCH  ACCESS:          0  HIT:          0  MISS:          0
cpu0_DTLB WRITEBACK ACCESS:          0  HIT:          0  MISS:          0
cpu0_DTLB TRANSLATION ACCESS:          0  HIT:          0  MISS:          0
cpu0_DTLB PREFETCH  REQUESTED:          0  ISSUED:          0  USEFUL:          0  USELESS:          0
cpu0_DTLB AVERAGE MISS LATENCY: 9.26329 cycles
cpu0_ITLB TOTAL     ACCESS:    6778829  HIT:    6778826  MISS:          3
cpu0_ITLB LOAD      ACCESS:    6778829  HIT:    6778826  MISS:          3
cpu0_ITLB RFO       ACCESS:          0  HIT:          0  MISS:          0
cpu0_ITLB PREFETCH  ACCESS:          0  HIT:          0  MISS:          0
cpu0_ITLB WRITEBACK ACCESS:          0  HIT:          0  MISS:          0
cpu0_ITLB TRANSLATION ACCESS:          0  HIT:          0  MISS:          0
cpu0_ITLB PREFETCH  REQUESTED:          0  ISSUED:          0  USEFUL:          0  USELESS:          0
cpu0_ITLB AVERAGE MISS LATENCY: 395.667 cycles
cpu0_L1I TOTAL     ACCESS:      58680  HIT:      58541  MISS:        139
cpu0_L1I LOAD      ACCESS:      58680  HIT:      58541  MISS:        139
cpu0_L1I RFO       ACCESS:          0  HIT:          0  MISS:          0
cpu0_L1I PREFETCH  ACCESS:          0  HIT:          0  MISS:          0
cpu0_L1I WRITEBACK ACCESS:          0  HIT:          0  MISS:          0
cpu0_L1I TRANSLATION ACCESS:          0  HIT:          0  MISS:          0
cpu0_L1I PREFETCH  REQUESTED:          0  ISSUED:          0  USEFUL:          0  USELESS:          0
cpu0_L1I AVERAGE MISS LATENCY: 201.129 cycles
cpu0_STLB TOTAL     ACCESS:     660771  HIT:     659951  MISS:        820
cpu0_STLB LOAD      ACCESS:     656849  HIT:     656576  MISS:        273
cpu0_STLB RFO       ACCESS:       3922  HIT:       3375  MISS:        547
cpu0_STLB PREFETCH  ACCESS:          0  HIT:          0  MISS:          0
cpu0_STLB WRITEBACK ACCESS:          0  HIT:          0  MISS:          0
cpu0_STLB TRANSLATION ACCESS:          0  HIT:          0  MISS:          0
cpu0_STLB PREFETCH  REQUESTED:          0  ISSUED:          0  USEFUL:          0  USELESS:          0
cpu0_STLB AVERAGE MISS LATENCY: 213.502 cycles
cpu0_L1D TOTAL     ACCESS:   20317030  HIT:   19311461  MISS:    1005569
cpu0_L1D LOAD      ACCESS:   10366038  HIT:    9479667  MISS:     886371
cpu0_L1D RFO       ACCESS:    9950175  HIT:    9831296  MISS:     118879
cpu0_L1D PREFETCH  ACCESS:          0  HIT:          0  MISS:          0
cpu0_L1D WRITEBACK ACCESS:          0  HIT:          0  MISS:          0
cpu0_L1D TRANSLATION ACCESS:        817  HIT:        498  MISS:        319
cpu0_L1D PREFETCH  REQUESTED:          0  ISSUED:          0  USEFUL:          0  USELESS:          0
cpu0_L1D AVERAGE MISS LATENCY: 87.9633 cycles
cpu0_L2C TOTAL     ACCESS:    1222703  HIT:     525088  MISS:     697615
cpu0_L2C LOAD      ACCESS:     886507  HIT:     288920  MISS:     597587
cpu0_L2C RFO       ACCESS:     118877  HIT:      18903  MISS:      99974
cpu0_L2C PREFETCH  ACCESS:          0  HIT:          0  MISS:          0
cpu0_L2C WRITEBACK ACCESS:     217000  HIT:     216964  MISS:         36
cpu0_L2C TRANSLATION ACCESS:        319  HIT:        301  MISS:         18
cpu0_L2C PREFETCH  REQUESTED:          0  ISSUED:          0  USEFUL:          0  USELESS:          0
cpu0_L2C AVERAGE MISS LATENCY: 110.971 cycles
LLC TOTAL     ACCESS:     886578  HIT:     587540  MISS:     299038
LLC LOAD      ACCESS:     597586  HIT:     398103  MISS:     199483
LLC RFO       ACCESS:      99974  HIT:      46835  MISS:      53139
LLC PREFETCH  ACCESS:          0  HIT:          0  MISS:          0
LLC WRITEBACK ACCESS:     189000  HIT:     142601  MISS:      46399
LLC TRANSLATION ACCESS:         18  HIT:          1  MISS:         17
LLC PREFETCH  REQUESTED:          0  ISSUED:          0  USEFUL:          0  USELESS:          0
LLC AVERAGE MISS LATENCY: 209.889 cycles

DRAM Statistics
 CHANNEL 0
 RQ ROW_BUFFER_HIT:      29305  ROW_BUFFER_MISS:     223115
 DBUS AVG_CONGESTED_CYCLE:    3.95654
 WQ ROW_BUFFER_HIT:      15791  ROW_BUFFER_MISS:     121382  FULL:          0


CPU 0 Branch Prediction Accuracy: 93.3658% MPKI: 11.2167 Average ROB Occupancy at Mispredict: 31.7362
Branch type MPKI
BRANCH_DIRECT_JUMP: 0.0006
BRANCH_INDIRECT: 0.01713
BRANCH_CONDITIONAL: 11.1989
BRANCH_DIRECT_CALL: 5e-05
BRANCH_INDIRECT_CALL: 0
BRANCH_RETURN: 6e-05

