
*** ChampSim Multicore Out-of-Order Simulator ***

Warmup Instructions: 10000000
Simulation Instructions: 100000000
Number of CPUs: 1
Off-chip DRAM Size: 4 GiB Channels: 1 Width: 64-bit Data Rate: 3200 MT/s

VirtualMemory physical capacity: 8588881920 num_ppages: 2096895
VirtualMemory page size: 4096 log2_page_size: 12

CPU 0 runs /datasets/cs240c-wi22-a00-public/data/Assignment2/cactusADM_1039B.trace.xz
CPU 0 Bimodal branch predictor
Basic BTB sets: 1024 ways: 8 indirect buffer size: 4096 RAS size: 64
Initialize Hawkeye state
Initialize SRRIP state
Heartbeat CPU 0 instructions: 10000004 cycles: 3647107 heartbeat IPC: 2.7419 cumulative IPC: 2.7419 (Simulation time: 0 hr 0 min 57 sec) 

Warmup complete CPU 0 instructions: 10000004 cycles: 3647107 (Simulation time: 0 hr 0 min 57 sec) 

Heartbeat CPU 0 instructions: 20000004 cycles: 13504168 heartbeat IPC: 1.0145 cumulative IPC: 1.0145 (Simulation time: 0 hr 2 min 31 sec) 
Heartbeat CPU 0 instructions: 30000000 cycles: 22713822 heartbeat IPC: 1.08582 cumulative IPC: 1.04895 (Simulation time: 0 hr 3 min 56 sec) 
Heartbeat CPU 0 instructions: 40000000 cycles: 31526915 heartbeat IPC: 1.13468 cumulative IPC: 1.07605 (Simulation time: 0 hr 5 min 22 sec) 
Heartbeat CPU 0 instructions: 50000004 cycles: 40298835 heartbeat IPC: 1.14 cumulative IPC: 1.09135 (Simulation time: 0 hr 6 min 52 sec) 
Heartbeat CPU 0 instructions: 60000004 cycles: 46481048 heartbeat IPC: 1.61754 cumulative IPC: 1.1673 (Simulation time: 0 hr 8 min 7 sec) 
Heartbeat CPU 0 instructions: 70000002 cycles: 54883091 heartbeat IPC: 1.19019 cumulative IPC: 1.17105 (Simulation time: 0 hr 9 min 29 sec) 
Heartbeat CPU 0 instructions: 80000004 cycles: 63339839 heartbeat IPC: 1.18249 cumulative IPC: 1.17267 (Simulation time: 0 hr 10 min 48 sec) 
Heartbeat CPU 0 instructions: 90000004 cycles: 71875124 heartbeat IPC: 1.17161 cumulative IPC: 1.17254 (Simulation time: 0 hr 12 min 9 sec) 
Heartbeat CPU 0 instructions: 100000000 cycles: 77942288 heartbeat IPC: 1.64822 cumulative IPC: 1.21138 (Simulation time: 0 hr 13 min 21 sec) 
Heartbeat CPU 0 instructions: 110000003 cycles: 86340425 heartbeat IPC: 1.19074 cumulative IPC: 1.20929 (Simulation time: 0 hr 14 min 42 sec) 
Finished CPU 0 instructions: 100000004 cycles: 82693319 cumulative IPC: 1.20929 (Simulation time: 0 hr 14 min 42 sec) 

ChampSim completed all CPUs

Region of Interest Statistics

CPU 0 cumulative IPC: 1.20929 instructions: 100000004 cycles: 82693319
cpu0_DTLB TOTAL     ACCESS:   22845868  HIT:   20796691  MISS:    2049177
cpu0_DTLB LOAD      ACCESS:   18926035  HIT:   17493185  MISS:    1432850
cpu0_DTLB RFO       ACCESS:    3919833  HIT:    3303506  MISS:     616327
cpu0_DTLB PREFETCH  ACCESS:          0  HIT:          0  MISS:          0
cpu0_DTLB WRITEBACK ACCESS:          0  HIT:          0  MISS:          0
cpu0_DTLB TRANSLATION ACCESS:          0  HIT:          0  MISS:          0
cpu0_DTLB PREFETCH  REQUESTED:          0  ISSUED:          0  USEFUL:          0  USELESS:          0
cpu0_DTLB AVERAGE MISS LATENCY: 15.877 cycles
cpu0_ITLB TOTAL     ACCESS:    1451283  HIT:    1451283  MISS:          0
cpu0_ITLB LOAD      ACCESS:    1451283  HIT:    1451283  MISS:          0
cpu0_ITLB RFO       ACCESS:          0  HIT:          0  MISS:          0
cpu0_ITLB PREFETCH  ACCESS:          0  HIT:          0  MISS:          0
cpu0_ITLB WRITEBACK ACCESS:          0  HIT:          0  MISS:          0
cpu0_ITLB TRANSLATION ACCESS:          0  HIT:          0  MISS:          0
cpu0_ITLB PREFETCH  REQUESTED:          0  ISSUED:          0  USEFUL:          0  USELESS:          0
cpu0_ITLB AVERAGE MISS LATENCY: -nan cycles
cpu0_L1I TOTAL     ACCESS:    8118659  HIT:    8118656  MISS:          3
cpu0_L1I LOAD      ACCESS:    8118659  HIT:    8118656  MISS:          3
cpu0_L1I RFO       ACCESS:          0  HIT:          0  MISS:          0
cpu0_L1I PREFETCH  ACCESS:          0  HIT:          0  MISS:          0
cpu0_L1I WRITEBACK ACCESS:          0  HIT:          0  MISS:          0
cpu0_L1I TRANSLATION ACCESS:          0  HIT:          0  MISS:          0
cpu0_L1I PREFETCH  REQUESTED:          0  ISSUED:          0  USEFUL:          0  USELESS:          0
cpu0_L1I AVERAGE MISS LATENCY: 876.333 cycles
cpu0_STLB TOTAL     ACCESS:    2049177  HIT:    1128679  MISS:     920498
cpu0_STLB LOAD      ACCESS:    1432850  HIT:     834925  MISS:     597925
cpu0_STLB RFO       ACCESS:     616327  HIT:     293754  MISS:     322573
cpu0_STLB PREFETCH  ACCESS:          0  HIT:          0  MISS:          0
cpu0_STLB WRITEBACK ACCESS:          0  HIT:          0  MISS:          0
cpu0_STLB TRANSLATION ACCESS:          0  HIT:          0  MISS:          0
cpu0_STLB PREFETCH  REQUESTED:          0  ISSUED:          0  USEFUL:          0  USELESS:          0
cpu0_STLB AVERAGE MISS LATENCY: 15.1513 cycles
cpu0_L1D TOTAL     ACCESS:   37598428  HIT:   36274677  MISS:    1323751
cpu0_L1D LOAD      ACCESS:   25695548  HIT:   24643136  MISS:    1052412
cpu0_L1D RFO       ACCESS:   10983228  HIT:   10717857  MISS:     265371
cpu0_L1D PREFETCH  ACCESS:          0  HIT:          0  MISS:          0
cpu0_L1D WRITEBACK ACCESS:          0  HIT:          0  MISS:          0
cpu0_L1D TRANSLATION ACCESS:     919652  HIT:     913684  MISS:       5968
cpu0_L1D PREFETCH  REQUESTED:          0  ISSUED:          0  USEFUL:          0  USELESS:          0
cpu0_L1D AVERAGE MISS LATENCY: 280.923 cycles
cpu0_L2C TOTAL     ACCESS:    1593019  HIT:     694192  MISS:     898827
cpu0_L2C LOAD      ACCESS:    1052414  HIT:     419491  MISS:     632923
cpu0_L2C RFO       ACCESS:     265371  HIT:          0  MISS:     265371
cpu0_L2C PREFETCH  ACCESS:          0  HIT:          0  MISS:          0
cpu0_L2C WRITEBACK ACCESS:     269266  HIT:     269054  MISS:        212
cpu0_L2C TRANSLATION ACCESS:       5968  HIT:       5647  MISS:        321
cpu0_L2C PREFETCH  REQUESTED:          0  ISSUED:          0  USEFUL:          0  USELESS:          0
cpu0_L2C AVERAGE MISS LATENCY: 397.51 cycles
LLC TOTAL     ACCESS:    1165778  HIT:     346691  MISS:     819087
LLC LOAD      ACCESS:     632923  HIT:     154915  MISS:     478008
LLC RFO       ACCESS:     265371  HIT:      82538  MISS:     182833
LLC PREFETCH  ACCESS:          0  HIT:          0  MISS:          0
LLC WRITEBACK ACCESS:     267163  HIT:     109201  MISS:     157962
LLC TRANSLATION ACCESS:        321  HIT:         37  MISS:        284
LLC PREFETCH  REQUESTED:          0  ISSUED:          0  USEFUL:          0  USELESS:          0
LLC AVERAGE MISS LATENCY: 413.168 cycles

DRAM Statistics
 CHANNEL 0
 RQ ROW_BUFFER_HIT:       6558  ROW_BUFFER_MISS:     654538
 DBUS AVG_CONGESTED_CYCLE:    3.97613
 WQ ROW_BUFFER_HIT:      21117  ROW_BUFFER_MISS:     217669  FULL:        320


CPU 0 Branch Prediction Accuracy: 97.7479% MPKI: 0.04701 Average ROB Occupancy at Mispredict: 283.778
Branch type MPKI
BRANCH_DIRECT_JUMP: 0
BRANCH_INDIRECT: 0
BRANCH_CONDITIONAL: 0.04701
BRANCH_DIRECT_CALL: 0
BRANCH_INDIRECT_CALL: 0
BRANCH_RETURN: 0

