
*** ChampSim Multicore Out-of-Order Simulator ***

Warmup Instructions: 10000000
Simulation Instructions: 100000000
Number of CPUs: 1
Off-chip DRAM Size: 4 GiB Channels: 1 Width: 64-bit Data Rate: 3200 MT/s

VirtualMemory physical capacity: 8588881920 num_ppages: 2096895
VirtualMemory page size: 4096 log2_page_size: 12

CPU 0 runs /datasets/cs240c-wi22-a00-public/data/Assignment2/hmmer_7B.trace.xz
CPU 0 Bimodal branch predictor
Basic BTB sets: 1024 ways: 8 indirect buffer size: 4096 RAS size: 64
Initialize Hawkeye state
Initialize SRRIP state
Heartbeat CPU 0 instructions: 10000004 cycles: 3986065 heartbeat IPC: 2.50874 cumulative IPC: 2.50874 (Simulation time: 0 hr 0 min 50 sec) 

Warmup complete CPU 0 instructions: 10000004 cycles: 3986065 (Simulation time: 0 hr 0 min 50 sec) 

Heartbeat CPU 0 instructions: 20000004 cycles: 9212937 heartbeat IPC: 1.91319 cumulative IPC: 1.91319 (Simulation time: 0 hr 1 min 56 sec) 
Heartbeat CPU 0 instructions: 30000001 cycles: 13936327 heartbeat IPC: 2.11712 cumulative IPC: 2.01 (Simulation time: 0 hr 3 min 1 sec) 
Heartbeat CPU 0 instructions: 40000001 cycles: 18473024 heartbeat IPC: 2.20425 cumulative IPC: 2.07083 (Simulation time: 0 hr 4 min 6 sec) 
Heartbeat CPU 0 instructions: 50000000 cycles: 23791789 heartbeat IPC: 1.88014 cumulative IPC: 2.01962 (Simulation time: 0 hr 5 min 13 sec) 
Heartbeat CPU 0 instructions: 60000000 cycles: 28120402 heartbeat IPC: 2.31021 cumulative IPC: 2.07174 (Simulation time: 0 hr 6 min 19 sec) 
Heartbeat CPU 0 instructions: 70000003 cycles: 32441910 heartbeat IPC: 2.31401 cumulative IPC: 2.10853 (Simulation time: 0 hr 7 min 22 sec) 
Heartbeat CPU 0 instructions: 80000001 cycles: 36751627 heartbeat IPC: 2.32034 cumulative IPC: 2.13639 (Simulation time: 0 hr 8 min 25 sec) 
Heartbeat CPU 0 instructions: 90000004 cycles: 41071234 heartbeat IPC: 2.31503 cumulative IPC: 2.1572 (Simulation time: 0 hr 9 min 28 sec) 
Heartbeat CPU 0 instructions: 100000002 cycles: 45390297 heartbeat IPC: 2.31532 cumulative IPC: 2.17369 (Simulation time: 0 hr 10 min 30 sec) 
Heartbeat CPU 0 instructions: 110000001 cycles: 49718846 heartbeat IPC: 2.31024 cumulative IPC: 2.18662 (Simulation time: 0 hr 11 min 34 sec) 
Finished CPU 0 instructions: 100000002 cycles: 45732782 cumulative IPC: 2.18662 (Simulation time: 0 hr 11 min 34 sec) 

ChampSim completed all CPUs

Region of Interest Statistics

CPU 0 cumulative IPC: 2.18662 instructions: 100000002 cycles: 45732782
cpu0_DTLB TOTAL     ACCESS:   40543742  HIT:   40529584  MISS:      14158
cpu0_DTLB LOAD      ACCESS:   32388792  HIT:   32381074  MISS:       7718
cpu0_DTLB RFO       ACCESS:    8154950  HIT:    8148510  MISS:       6440
cpu0_DTLB PREFETCH  ACCESS:          0  HIT:          0  MISS:          0
cpu0_DTLB WRITEBACK ACCESS:          0  HIT:          0  MISS:          0
cpu0_DTLB TRANSLATION ACCESS:          0  HIT:          0  MISS:          0
cpu0_DTLB PREFETCH  REQUESTED:          0  ISSUED:          0  USEFUL:          0  USELESS:          0
cpu0_DTLB AVERAGE MISS LATENCY: 14.932 cycles
cpu0_ITLB TOTAL     ACCESS:     799351  HIT:     799279  MISS:         72
cpu0_ITLB LOAD      ACCESS:     799351  HIT:     799279  MISS:         72
cpu0_ITLB RFO       ACCESS:          0  HIT:          0  MISS:          0
cpu0_ITLB PREFETCH  ACCESS:          0  HIT:          0  MISS:          0
cpu0_ITLB WRITEBACK ACCESS:          0  HIT:          0  MISS:          0
cpu0_ITLB TRANSLATION ACCESS:          0  HIT:          0  MISS:          0
cpu0_ITLB PREFETCH  REQUESTED:          0  ISSUED:          0  USEFUL:          0  USELESS:          0
cpu0_ITLB AVERAGE MISS LATENCY: 21 cycles
cpu0_L1I TOTAL     ACCESS:      62200  HIT:      62095  MISS:        105
cpu0_L1I LOAD      ACCESS:      62200  HIT:      62095  MISS:        105
cpu0_L1I RFO       ACCESS:          0  HIT:          0  MISS:          0
cpu0_L1I PREFETCH  ACCESS:          0  HIT:          0  MISS:          0
cpu0_L1I WRITEBACK ACCESS:          0  HIT:          0  MISS:          0
cpu0_L1I TRANSLATION ACCESS:          0  HIT:          0  MISS:          0
cpu0_L1I PREFETCH  REQUESTED:          0  ISSUED:          0  USEFUL:          0  USELESS:          0
cpu0_L1I AVERAGE MISS LATENCY: 115.105 cycles
cpu0_STLB TOTAL     ACCESS:      14230  HIT:      13775  MISS:        455
cpu0_STLB LOAD      ACCESS:       7790  HIT:       7782  MISS:          8
cpu0_STLB RFO       ACCESS:       6440  HIT:       5993  MISS:        447
cpu0_STLB PREFETCH  ACCESS:          0  HIT:          0  MISS:          0
cpu0_STLB WRITEBACK ACCESS:          0  HIT:          0  MISS:          0
cpu0_STLB TRANSLATION ACCESS:          0  HIT:          0  MISS:          0
cpu0_STLB PREFETCH  REQUESTED:          0  ISSUED:          0  USEFUL:          0  USELESS:          0
cpu0_STLB AVERAGE MISS LATENCY: 186.281 cycles
cpu0_L1D TOTAL     ACCESS:   33505955  HIT:   33035818  MISS:     470137
cpu0_L1D LOAD      ACCESS:   28672878  HIT:   28511472  MISS:     161406
cpu0_L1D RFO       ACCESS:    4832623  HIT:    4523915  MISS:     308708
cpu0_L1D PREFETCH  ACCESS:          0  HIT:          0  MISS:          0
cpu0_L1D WRITEBACK ACCESS:          0  HIT:          0  MISS:          0
cpu0_L1D TRANSLATION ACCESS:        454  HIT:        431  MISS:         23
cpu0_L1D PREFETCH  REQUESTED:          0  ISSUED:          0  USEFUL:          0  USELESS:          0
cpu0_L1D AVERAGE MISS LATENCY: 236.921 cycles
cpu0_L2C TOTAL     ACCESS:     777409  HIT:     472485  MISS:     304924
cpu0_L2C LOAD      ACCESS:     161511  HIT:     149276  MISS:      12235
cpu0_L2C RFO       ACCESS:     308708  HIT:      16074  MISS:     292634
cpu0_L2C PREFETCH  ACCESS:          0  HIT:          0  MISS:          0
cpu0_L2C WRITEBACK ACCESS:     307167  HIT:     307120  MISS:         47
cpu0_L2C TRANSLATION ACCESS:         23  HIT:         15  MISS:          8
cpu0_L2C PREFETCH  REQUESTED:          0  ISSUED:          0  USEFUL:          0  USELESS:          0
cpu0_L2C AVERAGE MISS LATENCY: 348.35 cycles
LLC TOTAL     ACCESS:     596561  HIT:     450987  MISS:     145574
LLC LOAD      ACCESS:      12234  HIT:      10768  MISS:       1466
LLC RFO       ACCESS:     292633  HIT:     211454  MISS:      81179
LLC PREFETCH  ACCESS:          0  HIT:          0  MISS:          0
LLC WRITEBACK ACCESS:     291686  HIT:     228760  MISS:      62926
LLC TRANSLATION ACCESS:          8  HIT:          5  MISS:          3
LLC PREFETCH  REQUESTED:          0  ISSUED:          0  USEFUL:          0  USELESS:          0
LLC AVERAGE MISS LATENCY: 685.582 cycles

DRAM Statistics
 CHANNEL 0
 RQ ROW_BUFFER_HIT:       1459  ROW_BUFFER_MISS:      81189
 DBUS AVG_CONGESTED_CYCLE:    3.99436
 WQ ROW_BUFFER_HIT:       4396  ROW_BUFFER_MISS:      74792  FULL:      12627


CPU 0 Branch Prediction Accuracy: 98.9368% MPKI: 0.40856 Average ROB Occupancy at Mispredict: 252.392
Branch type MPKI
BRANCH_DIRECT_JUMP: 0.00016
BRANCH_INDIRECT: 0.00157
BRANCH_CONDITIONAL: 0.40659
BRANCH_DIRECT_CALL: 9e-05
BRANCH_INDIRECT_CALL: 3e-05
BRANCH_RETURN: 0.00012

