
*** ChampSim Multicore Out-of-Order Simulator ***

Warmup Instructions: 10000000
Simulation Instructions: 100000000
Number of CPUs: 1
Off-chip DRAM Size: 4 GiB Channels: 1 Width: 64-bit Data Rate: 3200 MT/s

VirtualMemory physical capacity: 8588881920 num_ppages: 2096895
VirtualMemory page size: 4096 log2_page_size: 12

CPU 0 runs /datasets/cs240c-wi22-a00-public/data/Assignment2/libquantum_1735B.trace.xz
CPU 0 Bimodal branch predictor
Basic BTB sets: 1024 ways: 8 indirect buffer size: 4096 RAS size: 64
Initialize Hawkeye state
Initialize SRRIP state
Heartbeat CPU 0 instructions: 10000002 cycles: 2500058 heartbeat IPC: 3.99991 cumulative IPC: 3.99991 (Simulation time: 0 hr 0 min 21 sec) 

Warmup complete CPU 0 instructions: 10000002 cycles: 2500058 (Simulation time: 0 hr 0 min 21 sec) 

Heartbeat CPU 0 instructions: 20000003 cycles: 36661590 heartbeat IPC: 0.292727 cumulative IPC: 0.292727 (Simulation time: 0 hr 1 min 36 sec) 
Heartbeat CPU 0 instructions: 30000001 cycles: 70619798 heartbeat IPC: 0.29448 cumulative IPC: 0.293601 (Simulation time: 0 hr 2 min 50 sec) 
Heartbeat CPU 0 instructions: 40000003 cycles: 108948732 heartbeat IPC: 0.2609 cumulative IPC: 0.281826 (Simulation time: 0 hr 4 min 7 sec) 
Heartbeat CPU 0 instructions: 50000002 cycles: 147035033 heartbeat IPC: 0.262562 cumulative IPC: 0.27675 (Simulation time: 0 hr 5 min 24 sec) 
Heartbeat CPU 0 instructions: 60000001 cycles: 152076384 heartbeat IPC: 1.9836 cumulative IPC: 0.334277 (Simulation time: 0 hr 6 min 11 sec) 
Heartbeat CPU 0 instructions: 70000002 cycles: 157280741 heartbeat IPC: 1.92147 cumulative IPC: 0.387645 (Simulation time: 0 hr 7 min 0 sec) 
Heartbeat CPU 0 instructions: 80000000 cycles: 195123427 heartbeat IPC: 0.264252 cumulative IPC: 0.363403 (Simulation time: 0 hr 8 min 16 sec) 
Heartbeat CPU 0 instructions: 90000000 cycles: 234619622 heartbeat IPC: 0.253189 cumulative IPC: 0.34465 (Simulation time: 0 hr 9 min 35 sec) 
Heartbeat CPU 0 instructions: 100000000 cycles: 292576465 heartbeat IPC: 0.172542 cumulative IPC: 0.310263 (Simulation time: 0 hr 11 min 14 sec) 
Heartbeat CPU 0 instructions: 110000003 cycles: 330314404 heartbeat IPC: 0.264985 cumulative IPC: 0.305051 (Simulation time: 0 hr 12 min 29 sec) 
Finished CPU 0 instructions: 100000001 cycles: 327814346 cumulative IPC: 0.305051 (Simulation time: 0 hr 12 min 29 sec) 

ChampSim completed all CPUs

Region of Interest Statistics

CPU 0 cumulative IPC: 0.305051 instructions: 100000001 cycles: 327814346
cpu0_DTLB TOTAL     ACCESS:    9959329  HIT:    9915726  MISS:      43603
cpu0_DTLB LOAD      ACCESS:    8326243  HIT:    8282645  MISS:      43598
cpu0_DTLB RFO       ACCESS:    1633086  HIT:    1633081  MISS:          5
cpu0_DTLB PREFETCH  ACCESS:          0  HIT:          0  MISS:          0
cpu0_DTLB WRITEBACK ACCESS:          0  HIT:          0  MISS:          0
cpu0_DTLB TRANSLATION ACCESS:          0  HIT:          0  MISS:          0
cpu0_DTLB PREFETCH  REQUESTED:          0  ISSUED:          0  USEFUL:          0  USELESS:          0
cpu0_DTLB AVERAGE MISS LATENCY: 35.7377 cycles
cpu0_ITLB TOTAL     ACCESS:    4579354  HIT:    4579354  MISS:          0
cpu0_ITLB LOAD      ACCESS:    4579354  HIT:    4579354  MISS:          0
cpu0_ITLB RFO       ACCESS:          0  HIT:          0  MISS:          0
cpu0_ITLB PREFETCH  ACCESS:          0  HIT:          0  MISS:          0
cpu0_ITLB WRITEBACK ACCESS:          0  HIT:          0  MISS:          0
cpu0_ITLB TRANSLATION ACCESS:          0  HIT:          0  MISS:          0
cpu0_ITLB PREFETCH  REQUESTED:          0  ISSUED:          0  USEFUL:          0  USELESS:          0
cpu0_ITLB AVERAGE MISS LATENCY: -nan cycles
cpu0_L1I TOTAL     ACCESS:         20  HIT:         11  MISS:          9
cpu0_L1I LOAD      ACCESS:         20  HIT:         11  MISS:          9
cpu0_L1I RFO       ACCESS:          0  HIT:          0  MISS:          0
cpu0_L1I PREFETCH  ACCESS:          0  HIT:          0  MISS:          0
cpu0_L1I WRITEBACK ACCESS:          0  HIT:          0  MISS:          0
cpu0_L1I TRANSLATION ACCESS:          0  HIT:          0  MISS:          0
cpu0_L1I PREFETCH  REQUESTED:          0  ISSUED:          0  USEFUL:          0  USELESS:          0
cpu0_L1I AVERAGE MISS LATENCY: 195.222 cycles
cpu0_STLB TOTAL     ACCESS:      43603  HIT:          0  MISS:      43603
cpu0_STLB LOAD      ACCESS:      43598  HIT:          0  MISS:      43598
cpu0_STLB RFO       ACCESS:          5  HIT:          0  MISS:          5
cpu0_STLB PREFETCH  ACCESS:          0  HIT:          0  MISS:          0
cpu0_STLB WRITEBACK ACCESS:          0  HIT:          0  MISS:          0
cpu0_STLB TRANSLATION ACCESS:          0  HIT:          0  MISS:          0
cpu0_STLB PREFETCH  REQUESTED:          0  ISSUED:          0  USEFUL:          0  USELESS:          0
cpu0_STLB AVERAGE MISS LATENCY: 26.7377 cycles
cpu0_L1D TOTAL     ACCESS:    6546864  HIT:    3757431  MISS:    2789433
cpu0_L1D LOAD      ACCESS:    4614756  HIT:    1825373  MISS:    2789383
cpu0_L1D RFO       ACCESS:    1888505  HIT:    1888485  MISS:         20
cpu0_L1D PREFETCH  ACCESS:          0  HIT:          0  MISS:          0
cpu0_L1D WRITEBACK ACCESS:          0  HIT:          0  MISS:          0
cpu0_L1D TRANSLATION ACCESS:      43603  HIT:      43573  MISS:         30
cpu0_L1D PREFETCH  REQUESTED:          0  ISSUED:          0  USEFUL:          0  USELESS:          0
cpu0_L1D AVERAGE MISS LATENCY: 164.413 cycles
cpu0_L2C TOTAL     ACCESS:    3804021  HIT:    1014579  MISS:    2789442
cpu0_L2C LOAD      ACCESS:    2789392  HIT:          0  MISS:    2789392
cpu0_L2C RFO       ACCESS:         20  HIT:          0  MISS:         20
cpu0_L2C PREFETCH  ACCESS:          0  HIT:          0  MISS:          0
cpu0_L2C WRITEBACK ACCESS:    1014579  HIT:    1014579  MISS:          0
cpu0_L2C TRANSLATION ACCESS:         30  HIT:          0  MISS:         30
cpu0_L2C PREFETCH  REQUESTED:          0  ISSUED:          0  USEFUL:          0  USELESS:          0
cpu0_L2C AVERAGE MISS LATENCY: 153.41 cycles
LLC TOTAL     ACCESS:    3798498  HIT:     150174  MISS:    3648324
LLC LOAD      ACCESS:    2789392  HIT:     109234  MISS:    2680158
LLC RFO       ACCESS:         20  HIT:         16  MISS:          4
LLC PREFETCH  ACCESS:          0  HIT:          0  MISS:          0
LLC WRITEBACK ACCESS:    1009056  HIT:      40911  MISS:     968145
LLC TRANSLATION ACCESS:         30  HIT:         13  MISS:         17
LLC PREFETCH  REQUESTED:          0  ISSUED:          0  USEFUL:          0  USELESS:          0
LLC AVERAGE MISS LATENCY: 101.237 cycles

DRAM Statistics
 CHANNEL 0
 RQ ROW_BUFFER_HIT:    1373881  ROW_BUFFER_MISS:    1306286
 DBUS AVG_CONGESTED_CYCLE:    3.73658
 WQ ROW_BUFFER_HIT:     331700  ROW_BUFFER_MISS:     656750  FULL:      16182


CPU 0 Branch Prediction Accuracy: 89.0086% MPKI: 24.5272 Average ROB Occupancy at Mispredict: 3.91519
Branch type MPKI
BRANCH_DIRECT_JUMP: 2e-05
BRANCH_INDIRECT: 0
BRANCH_CONDITIONAL: 24.527
BRANCH_DIRECT_CALL: 8e-05
BRANCH_INDIRECT_CALL: 0
BRANCH_RETURN: 8e-05

