
*** ChampSim Multicore Out-of-Order Simulator ***

Warmup Instructions: 10000000
Simulation Instructions: 100000000
Number of CPUs: 1
Off-chip DRAM Size: 4 GiB Channels: 1 Width: 64-bit Data Rate: 3200 MT/s

VirtualMemory physical capacity: 8588881920 num_ppages: 2096895
VirtualMemory page size: 4096 log2_page_size: 12

CPU 0 runs /datasets/cs240c-wi22-a00-public/data/Assignment2/milc_360B.trace.xz
CPU 0 Bimodal branch predictor
Basic BTB sets: 1024 ways: 8 indirect buffer size: 4096 RAS size: 64
Initialize Hawkeye state
Initialize SRRIP state
Heartbeat CPU 0 instructions: 10000001 cycles: 2500103 heartbeat IPC: 3.99984 cumulative IPC: 3.99984 (Simulation time: 0 hr 0 min 26 sec) 

Warmup complete CPU 0 instructions: 10000001 cycles: 2500103 (Simulation time: 0 hr 0 min 26 sec) 

Heartbeat CPU 0 instructions: 20000000 cycles: 20131052 heartbeat IPC: 0.567184 cumulative IPC: 0.567184 (Simulation time: 0 hr 1 min 57 sec) 
Heartbeat CPU 0 instructions: 30000004 cycles: 37646800 heartbeat IPC: 0.570915 cumulative IPC: 0.569044 (Simulation time: 0 hr 3 min 32 sec) 
Heartbeat CPU 0 instructions: 40000001 cycles: 55179686 heartbeat IPC: 0.570357 cumulative IPC: 0.569481 (Simulation time: 0 hr 5 min 6 sec) 
Heartbeat CPU 0 instructions: 50000001 cycles: 76089832 heartbeat IPC: 0.478237 cumulative IPC: 0.543554 (Simulation time: 0 hr 7 min 6 sec) 
Heartbeat CPU 0 instructions: 60000000 cycles: 95641166 heartbeat IPC: 0.511474 cumulative IPC: 0.53682 (Simulation time: 0 hr 8 min 38 sec) 
Heartbeat CPU 0 instructions: 70000000 cycles: 115286480 heartbeat IPC: 0.509027 cumulative IPC: 0.531979 (Simulation time: 0 hr 10 min 8 sec) 
Heartbeat CPU 0 instructions: 80000000 cycles: 132327225 heartbeat IPC: 0.586829 cumulative IPC: 0.539179 (Simulation time: 0 hr 11 min 35 sec) 
Heartbeat CPU 0 instructions: 90000000 cycles: 148467212 heartbeat IPC: 0.619579 cumulative IPC: 0.548069 (Simulation time: 0 hr 13 min 0 sec) 
Heartbeat CPU 0 instructions: 100000002 cycles: 164685330 heartbeat IPC: 0.616594 cumulative IPC: 0.554921 (Simulation time: 0 hr 14 min 25 sec) 
Heartbeat CPU 0 instructions: 110000000 cycles: 180952458 heartbeat IPC: 0.614737 cumulative IPC: 0.560374 (Simulation time: 0 hr 15 min 49 sec) 
Finished CPU 0 instructions: 100000004 cycles: 178452356 cumulative IPC: 0.560374 (Simulation time: 0 hr 15 min 49 sec) 

ChampSim completed all CPUs

Region of Interest Statistics

CPU 0 cumulative IPC: 0.560374 instructions: 100000004 cycles: 178452356
cpu0_DTLB TOTAL     ACCESS:   15524920  HIT:   15310173  MISS:     214747
cpu0_DTLB LOAD      ACCESS:    9087658  HIT:    8875126  MISS:     212532
cpu0_DTLB RFO       ACCESS:    6437262  HIT:    6435047  MISS:       2215
cpu0_DTLB PREFETCH  ACCESS:          0  HIT:          0  MISS:          0
cpu0_DTLB WRITEBACK ACCESS:          0  HIT:          0  MISS:          0
cpu0_DTLB TRANSLATION ACCESS:          0  HIT:          0  MISS:          0
cpu0_DTLB PREFETCH  REQUESTED:          0  ISSUED:          0  USEFUL:          0  USELESS:          0
cpu0_DTLB AVERAGE MISS LATENCY: 83.1049 cycles
cpu0_ITLB TOTAL     ACCESS:    2730847  HIT:    2730844  MISS:          3
cpu0_ITLB LOAD      ACCESS:    2730847  HIT:    2730844  MISS:          3
cpu0_ITLB RFO       ACCESS:          0  HIT:          0  MISS:          0
cpu0_ITLB PREFETCH  ACCESS:          0  HIT:          0  MISS:          0
cpu0_ITLB WRITEBACK ACCESS:          0  HIT:          0  MISS:          0
cpu0_ITLB TRANSLATION ACCESS:          0  HIT:          0  MISS:          0
cpu0_ITLB PREFETCH  REQUESTED:          0  ISSUED:          0  USEFUL:          0  USELESS:          0
cpu0_ITLB AVERAGE MISS LATENCY: 519 cycles
cpu0_L1I TOTAL     ACCESS:    6941924  HIT:    6941896  MISS:         28
cpu0_L1I LOAD      ACCESS:    6941924  HIT:    6941896  MISS:         28
cpu0_L1I RFO       ACCESS:          0  HIT:          0  MISS:          0
cpu0_L1I PREFETCH  ACCESS:          0  HIT:          0  MISS:          0
cpu0_L1I WRITEBACK ACCESS:          0  HIT:          0  MISS:          0
cpu0_L1I TRANSLATION ACCESS:          0  HIT:          0  MISS:          0
cpu0_L1I PREFETCH  REQUESTED:          0  ISSUED:          0  USEFUL:          0  USELESS:          0
cpu0_L1I AVERAGE MISS LATENCY: 252.75 cycles
cpu0_STLB TOTAL     ACCESS:     214750  HIT:        127  MISS:     214623
cpu0_STLB LOAD      ACCESS:     212535  HIT:        101  MISS:     212434
cpu0_STLB RFO       ACCESS:       2215  HIT:         26  MISS:       2189
cpu0_STLB PREFETCH  ACCESS:          0  HIT:          0  MISS:          0
cpu0_STLB WRITEBACK ACCESS:          0  HIT:          0  MISS:          0
cpu0_STLB TRANSLATION ACCESS:          0  HIT:          0  MISS:          0
cpu0_STLB PREFETCH  REQUESTED:          0  ISSUED:          0  USEFUL:          0  USELESS:          0
cpu0_STLB AVERAGE MISS LATENCY: 74.1535 cycles
cpu0_L1D TOTAL     ACCESS:   24601098  HIT:   22504707  MISS:    2096391
cpu0_L1D LOAD      ACCESS:    6423741  HIT:    4467743  MISS:    1955998
cpu0_L1D RFO       ACCESS:   17963177  HIT:   17823168  MISS:     140009
cpu0_L1D PREFETCH  ACCESS:          0  HIT:          0  MISS:          0
cpu0_L1D WRITEBACK ACCESS:          0  HIT:          0  MISS:          0
cpu0_L1D TRANSLATION ACCESS:     214180  HIT:     213796  MISS:        384
cpu0_L1D PREFETCH  REQUESTED:          0  ISSUED:          0  USEFUL:          0  USELESS:          0
cpu0_L1D AVERAGE MISS LATENCY: 340.883 cycles
cpu0_L2C TOTAL     ACCESS:    2839086  HIT:     742662  MISS:    2096424
cpu0_L2C LOAD      ACCESS:    1956026  HIT:          0  MISS:    1956026
cpu0_L2C RFO       ACCESS:     140009  HIT:          0  MISS:     140009
cpu0_L2C PREFETCH  ACCESS:          0  HIT:          0  MISS:          0
cpu0_L2C WRITEBACK ACCESS:     742667  HIT:     742660  MISS:          7
cpu0_L2C TRANSLATION ACCESS:        384  HIT:          2  MISS:        382
cpu0_L2C PREFETCH  REQUESTED:          0  ISSUED:          0  USEFUL:          0  USELESS:          0
cpu0_L2C AVERAGE MISS LATENCY: 329.78 cycles
LLC TOTAL     ACCESS:    2839080  HIT:      66448  MISS:    2772632
LLC LOAD      ACCESS:    1956026  HIT:      13460  MISS:    1942566
LLC RFO       ACCESS:     140009  HIT:         21  MISS:     139988
LLC PREFETCH  ACCESS:          0  HIT:          0  MISS:          0
LLC WRITEBACK ACCESS:     742663  HIT:      52648  MISS:     690015
LLC TRANSLATION ACCESS:        382  HIT:        319  MISS:         63
LLC PREFETCH  REQUESTED:          0  ISSUED:          0  USEFUL:          0  USELESS:          0
LLC AVERAGE MISS LATENCY: 233.472 cycles

DRAM Statistics
 CHANNEL 0
 RQ ROW_BUFFER_HIT:     358380  ROW_BUFFER_MISS:    1724232
 DBUS AVG_CONGESTED_CYCLE:     3.9463
 WQ ROW_BUFFER_HIT:      39370  ROW_BUFFER_MISS:     693161  FULL:          0


CPU 0 Branch Prediction Accuracy: 99.9991% MPKI: 0.00037 Average ROB Occupancy at Mispredict: 87.6486
Branch type MPKI
BRANCH_DIRECT_JUMP: 4e-05
BRANCH_INDIRECT: 0
BRANCH_CONDITIONAL: 0.00015
BRANCH_DIRECT_CALL: 9e-05
BRANCH_INDIRECT_CALL: 0
BRANCH_RETURN: 9e-05

