
*** ChampSim Multicore Out-of-Order Simulator ***

Warmup Instructions: 10000000
Simulation Instructions: 100000000
Number of CPUs: 1
Off-chip DRAM Size: 4 GiB Channels: 1 Width: 64-bit Data Rate: 3200 MT/s

VirtualMemory physical capacity: 8588881920 num_ppages: 2096895
VirtualMemory page size: 4096 log2_page_size: 12

CPU 0 runs /datasets/cs240c-wi22-a00-public/data/Assignment2/perlbench_53B.trace.xz
CPU 0 Bimodal branch predictor
Basic BTB sets: 1024 ways: 8 indirect buffer size: 4096 RAS size: 64
Initialize Hawkeye state
Initialize SRRIP state
Heartbeat CPU 0 instructions: 10000000 cycles: 2503714 heartbeat IPC: 3.99407 cumulative IPC: 3.99407 (Simulation time: 0 hr 0 min 35 sec) 

Warmup complete CPU 0 instructions: 10000004 cycles: 2503715 (Simulation time: 0 hr 0 min 35 sec) 

Heartbeat CPU 0 instructions: 20000001 cycles: 15173998 heartbeat IPC: 0.789248 cumulative IPC: 0.789248 (Simulation time: 0 hr 1 min 22 sec) 
Heartbeat CPU 0 instructions: 30000001 cycles: 25186678 heartbeat IPC: 0.998734 cumulative IPC: 0.881719 (Simulation time: 0 hr 2 min 6 sec) 
Heartbeat CPU 0 instructions: 40000004 cycles: 37149105 heartbeat IPC: 0.835951 cumulative IPC: 0.865916 (Simulation time: 0 hr 2 min 51 sec) 
Heartbeat CPU 0 instructions: 50000001 cycles: 48321042 heartbeat IPC: 0.8951 cumulative IPC: 0.873032 (Simulation time: 0 hr 3 min 35 sec) 
Heartbeat CPU 0 instructions: 60000004 cycles: 61326649 heartbeat IPC: 0.768899 cumulative IPC: 0.850009 (Simulation time: 0 hr 4 min 21 sec) 
Heartbeat CPU 0 instructions: 70000004 cycles: 75106781 heartbeat IPC: 0.725682 cumulative IPC: 0.826411 (Simulation time: 0 hr 5 min 8 sec) 
Heartbeat CPU 0 instructions: 80000004 cycles: 88779744 heartbeat IPC: 0.73137 cumulative IPC: 0.811349 (Simulation time: 0 hr 5 min 54 sec) 
Heartbeat CPU 0 instructions: 90000001 cycles: 101466199 heartbeat IPC: 0.788242 cumulative IPC: 0.808387 (Simulation time: 0 hr 6 min 39 sec) 
Heartbeat CPU 0 instructions: 100000003 cycles: 115277514 heartbeat IPC: 0.724044 cumulative IPC: 0.798058 (Simulation time: 0 hr 7 min 27 sec) 
Heartbeat CPU 0 instructions: 110000002 cycles: 127456581 heartbeat IPC: 0.821081 cumulative IPC: 0.800302 (Simulation time: 0 hr 8 min 9 sec) 
Finished CPU 0 instructions: 100000000 cycles: 124952867 cumulative IPC: 0.800302 (Simulation time: 0 hr 8 min 9 sec) 

ChampSim completed all CPUs

Region of Interest Statistics

CPU 0 cumulative IPC: 0.800302 instructions: 100000000 cycles: 124952867
cpu0_DTLB TOTAL     ACCESS:   24814618  HIT:   24162042  MISS:     652576
cpu0_DTLB LOAD      ACCESS:   16193450  HIT:   15631637  MISS:     561813
cpu0_DTLB RFO       ACCESS:    8621168  HIT:    8530405  MISS:      90763
cpu0_DTLB PREFETCH  ACCESS:          0  HIT:          0  MISS:          0
cpu0_DTLB WRITEBACK ACCESS:          0  HIT:          0  MISS:          0
cpu0_DTLB TRANSLATION ACCESS:          0  HIT:          0  MISS:          0
cpu0_DTLB PREFETCH  REQUESTED:          0  ISSUED:          0  USEFUL:          0  USELESS:          0
cpu0_DTLB AVERAGE MISS LATENCY: 9.25835 cycles
cpu0_ITLB TOTAL     ACCESS:    8010993  HIT:    7934408  MISS:      76585
cpu0_ITLB LOAD      ACCESS:    8010993  HIT:    7934408  MISS:      76585
cpu0_ITLB RFO       ACCESS:          0  HIT:          0  MISS:          0
cpu0_ITLB PREFETCH  ACCESS:          0  HIT:          0  MISS:          0
cpu0_ITLB WRITEBACK ACCESS:          0  HIT:          0  MISS:          0
cpu0_ITLB TRANSLATION ACCESS:          0  HIT:          0  MISS:          0
cpu0_ITLB PREFETCH  REQUESTED:          0  ISSUED:          0  USEFUL:          0  USELESS:          0
cpu0_ITLB AVERAGE MISS LATENCY: 9.11423 cycles
cpu0_L1I TOTAL     ACCESS:   11821296  HIT:   11145110  MISS:     676186
cpu0_L1I LOAD      ACCESS:   11821296  HIT:   11145110  MISS:     676186
cpu0_L1I RFO       ACCESS:          0  HIT:          0  MISS:          0
cpu0_L1I PREFETCH  ACCESS:          0  HIT:          0  MISS:          0
cpu0_L1I WRITEBACK ACCESS:          0  HIT:          0  MISS:          0
cpu0_L1I TRANSLATION ACCESS:          0  HIT:          0  MISS:          0
cpu0_L1I PREFETCH  REQUESTED:          0  ISSUED:          0  USEFUL:          0  USELESS:          0
cpu0_L1I AVERAGE MISS LATENCY: 11.9857 cycles
cpu0_STLB TOTAL     ACCESS:     729161  HIT:     723348  MISS:       5813
cpu0_STLB LOAD      ACCESS:     638398  HIT:     633282  MISS:       5116
cpu0_STLB RFO       ACCESS:      90763  HIT:      90066  MISS:        697
cpu0_STLB PREFETCH  ACCESS:          0  HIT:          0  MISS:          0
cpu0_STLB WRITEBACK ACCESS:          0  HIT:          0  MISS:          0
cpu0_STLB TRANSLATION ACCESS:          0  HIT:          0  MISS:          0
cpu0_STLB PREFETCH  REQUESTED:          0  ISSUED:          0  USEFUL:          0  USELESS:          0
cpu0_STLB AVERAGE MISS LATENCY: 29.7537 cycles
cpu0_L1D TOTAL     ACCESS:   31988093  HIT:   31030348  MISS:     957745
cpu0_L1D LOAD      ACCESS:   17000714  HIT:   16127983  MISS:     872731
cpu0_L1D RFO       ACCESS:   14981610  HIT:   14897874  MISS:      83736
cpu0_L1D PREFETCH  ACCESS:          0  HIT:          0  MISS:          0
cpu0_L1D WRITEBACK ACCESS:          0  HIT:          0  MISS:          0
cpu0_L1D TRANSLATION ACCESS:       5769  HIT:       4491  MISS:       1278
cpu0_L1D PREFETCH  REQUESTED:          0  ISSUED:          0  USEFUL:          0  USELESS:          0
cpu0_L1D AVERAGE MISS LATENCY: 16.6312 cycles
cpu0_L2C TOTAL     ACCESS:    1881695  HIT:    1715439  MISS:     166256
cpu0_L2C LOAD      ACCESS:    1548903  HIT:    1404574  MISS:     144329
cpu0_L2C RFO       ACCESS:      83730  HIT:      62405  MISS:      21325
cpu0_L2C PREFETCH  ACCESS:          0  HIT:          0  MISS:          0
cpu0_L2C WRITEBACK ACCESS:     247784  HIT:     247308  MISS:        476
cpu0_L2C TRANSLATION ACCESS:       1278  HIT:       1152  MISS:        126
cpu0_L2C PREFETCH  REQUESTED:          0  ISSUED:          0  USEFUL:          0  USELESS:          0
cpu0_L2C AVERAGE MISS LATENCY: 36.2924 cycles
LLC TOTAL     ACCESS:     213731  HIT:     196288  MISS:      17443
LLC LOAD      ACCESS:     144329  HIT:     132102  MISS:      12227
LLC RFO       ACCESS:      21325  HIT:      16391  MISS:       4934
LLC PREFETCH  ACCESS:          0  HIT:          0  MISS:          0
LLC WRITEBACK ACCESS:      47951  HIT:      47670  MISS:        281
LLC TRANSLATION ACCESS:        126  HIT:        125  MISS:          1
LLC PREFETCH  REQUESTED:          0  ISSUED:          0  USEFUL:          0  USELESS:          0
LLC AVERAGE MISS LATENCY: 146.33 cycles

DRAM Statistics
 CHANNEL 0
 RQ ROW_BUFFER_HIT:       3540  ROW_BUFFER_MISS:      13620
 DBUS AVG_CONGESTED_CYCLE:    3.86601
 WQ ROW_BUFFER_HIT:        922  ROW_BUFFER_MISS:       2434  FULL:          0


CPU 0 Branch Prediction Accuracy: 94.2848% MPKI: 12.6658 Average ROB Occupancy at Mispredict: 36.2813
Branch type MPKI
BRANCH_DIRECT_JUMP: 0.00232
BRANCH_INDIRECT: 0.81431
BRANCH_CONDITIONAL: 10.3853
BRANCH_DIRECT_CALL: 0.00236
BRANCH_INDIRECT_CALL: 1.44344
BRANCH_RETURN: 0.01802

