
*** ChampSim Multicore Out-of-Order Simulator ***

Warmup Instructions: 10000000
Simulation Instructions: 100000000
Number of CPUs: 1
Off-chip DRAM Size: 4 GiB Channels: 1 Width: 64-bit Data Rate: 3200 MT/s

VirtualMemory physical capacity: 8588881920 num_ppages: 2096895
VirtualMemory page size: 4096 log2_page_size: 12

CPU 0 runs /datasets/cs240c-wi22-a00-public/data/Assignment2/sphinx3_883B.trace.xz
CPU 0 Bimodal branch predictor
Basic BTB sets: 1024 ways: 8 indirect buffer size: 4096 RAS size: 64
Initialize Hawkeye state
Initialize SRRIP state
Heartbeat CPU 0 instructions: 10000003 cycles: 2628876 heartbeat IPC: 3.80391 cumulative IPC: 3.80391 (Simulation time: 0 hr 0 min 29 sec) 

Warmup complete CPU 0 instructions: 10000003 cycles: 2628876 (Simulation time: 0 hr 0 min 29 sec) 

Heartbeat CPU 0 instructions: 20000000 cycles: 15593349 heartbeat IPC: 0.771338 cumulative IPC: 0.771338 (Simulation time: 0 hr 1 min 31 sec) 
Heartbeat CPU 0 instructions: 30000001 cycles: 28600563 heartbeat IPC: 0.768804 cumulative IPC: 0.770069 (Simulation time: 0 hr 2 min 33 sec) 
Heartbeat CPU 0 instructions: 40000004 cycles: 40721052 heartbeat IPC: 0.825049 cumulative IPC: 0.787563 (Simulation time: 0 hr 3 min 32 sec) 
Heartbeat CPU 0 instructions: 50000003 cycles: 52531372 heartbeat IPC: 0.846717 cumulative IPC: 0.801563 (Simulation time: 0 hr 4 min 29 sec) 
Heartbeat CPU 0 instructions: 60000000 cycles: 63764319 heartbeat IPC: 0.890238 cumulative IPC: 0.817856 (Simulation time: 0 hr 5 min 30 sec) 
Heartbeat CPU 0 instructions: 70000000 cycles: 73678907 heartbeat IPC: 1.00861 cumulative IPC: 0.844475 (Simulation time: 0 hr 6 min 25 sec) 
Heartbeat CPU 0 instructions: 80000000 cycles: 83946408 heartbeat IPC: 0.973947 cumulative IPC: 0.860823 (Simulation time: 0 hr 7 min 19 sec) 
Heartbeat CPU 0 instructions: 90000002 cycles: 93317073 heartbeat IPC: 1.06716 cumulative IPC: 0.882143 (Simulation time: 0 hr 8 min 8 sec) 
Heartbeat CPU 0 instructions: 100000003 cycles: 101769862 heartbeat IPC: 1.18304 cumulative IPC: 0.907798 (Simulation time: 0 hr 8 min 56 sec) 
Heartbeat CPU 0 instructions: 110000003 cycles: 112286638 heartbeat IPC: 0.950862 cumulative IPC: 0.911928 (Simulation time: 0 hr 9 min 50 sec) 
Finished CPU 0 instructions: 100000000 cycles: 109657762 cumulative IPC: 0.911928 (Simulation time: 0 hr 9 min 50 sec) 

ChampSim completed all CPUs

Region of Interest Statistics

CPU 0 cumulative IPC: 0.911928 instructions: 100000000 cycles: 109657762
cpu0_DTLB TOTAL     ACCESS:   16860057  HIT:   16700055  MISS:     160002
cpu0_DTLB LOAD      ACCESS:   15496165  HIT:   15344439  MISS:     151726
cpu0_DTLB RFO       ACCESS:    1363892  HIT:    1355616  MISS:       8276
cpu0_DTLB PREFETCH  ACCESS:          0  HIT:          0  MISS:          0
cpu0_DTLB WRITEBACK ACCESS:          0  HIT:          0  MISS:          0
cpu0_DTLB TRANSLATION ACCESS:          0  HIT:          0  MISS:          0
cpu0_DTLB PREFETCH  REQUESTED:          0  ISSUED:          0  USEFUL:          0  USELESS:          0
cpu0_DTLB AVERAGE MISS LATENCY: 12.8766 cycles
cpu0_ITLB TOTAL     ACCESS:    9446159  HIT:    9446094  MISS:         65
cpu0_ITLB LOAD      ACCESS:    9446159  HIT:    9446094  MISS:         65
cpu0_ITLB RFO       ACCESS:          0  HIT:          0  MISS:          0
cpu0_ITLB PREFETCH  ACCESS:          0  HIT:          0  MISS:          0
cpu0_ITLB WRITEBACK ACCESS:          0  HIT:          0  MISS:          0
cpu0_ITLB TRANSLATION ACCESS:          0  HIT:          0  MISS:          0
cpu0_ITLB PREFETCH  REQUESTED:          0  ISSUED:          0  USEFUL:          0  USELESS:          0
cpu0_ITLB AVERAGE MISS LATENCY: 148.385 cycles
cpu0_L1I TOTAL     ACCESS:     192755  HIT:     191375  MISS:       1380
cpu0_L1I LOAD      ACCESS:     192755  HIT:     191375  MISS:       1380
cpu0_L1I RFO       ACCESS:          0  HIT:          0  MISS:          0
cpu0_L1I PREFETCH  ACCESS:          0  HIT:          0  MISS:          0
cpu0_L1I WRITEBACK ACCESS:          0  HIT:          0  MISS:          0
cpu0_L1I TRANSLATION ACCESS:          0  HIT:          0  MISS:          0
cpu0_L1I PREFETCH  REQUESTED:          0  ISSUED:          0  USEFUL:          0  USELESS:          0
cpu0_L1I AVERAGE MISS LATENCY: 186.717 cycles
cpu0_STLB TOTAL     ACCESS:     160067  HIT:      99170  MISS:      60897
cpu0_STLB LOAD      ACCESS:     151791  HIT:      92115  MISS:      59676
cpu0_STLB RFO       ACCESS:       8276  HIT:       7055  MISS:       1221
cpu0_STLB PREFETCH  ACCESS:          0  HIT:          0  MISS:          0
cpu0_STLB WRITEBACK ACCESS:          0  HIT:          0  MISS:          0
cpu0_STLB TRANSLATION ACCESS:          0  HIT:          0  MISS:          0
cpu0_STLB PREFETCH  REQUESTED:          0  ISSUED:          0  USEFUL:          0  USELESS:          0
cpu0_STLB AVERAGE MISS LATENCY: 10.2086 cycles
cpu0_L1D TOTAL     ACCESS:   12430372  HIT:   10681046  MISS:    1749326
cpu0_L1D LOAD      ACCESS:   10168661  HIT:    8534263  MISS:    1634398
cpu0_L1D RFO       ACCESS:    2203551  HIT:    2089418  MISS:     114133
cpu0_L1D PREFETCH  ACCESS:          0  HIT:          0  MISS:          0
cpu0_L1D WRITEBACK ACCESS:          0  HIT:          0  MISS:          0
cpu0_L1D TRANSLATION ACCESS:      58160  HIT:      57365  MISS:        795
cpu0_L1D PREFETCH  REQUESTED:          0  ISSUED:          0  USEFUL:          0  USELESS:          0
cpu0_L1D AVERAGE MISS LATENCY: 130.29 cycles
cpu0_L2C TOTAL     ACCESS:    1908298  HIT:     517747  MISS:    1390551
cpu0_L2C LOAD      ACCESS:    1635775  HIT:     346985  MISS:    1288790
cpu0_L2C RFO       ACCESS:     114129  HIT:      12987  MISS:     101142
cpu0_L2C PREFETCH  ACCESS:          0  HIT:          0  MISS:          0
cpu0_L2C WRITEBACK ACCESS:     157599  HIT:     157302  MISS:        297
cpu0_L2C TRANSLATION ACCESS:        795  HIT:        473  MISS:        322
cpu0_L2C PREFETCH  REQUESTED:          0  ISSUED:          0  USEFUL:          0  USELESS:          0
cpu0_L2C AVERAGE MISS LATENCY: 150.184 cycles
LLC TOTAL     ACCESS:    1524801  HIT:     642651  MISS:     882150
LLC LOAD      ACCESS:    1288790  HIT:     475846  MISS:     812944
LLC RFO       ACCESS:     101142  HIT:      61749  MISS:      39393
LLC PREFETCH  ACCESS:          0  HIT:          0  MISS:          0
LLC WRITEBACK ACCESS:     134547  HIT:     104809  MISS:      29738
LLC TRANSLATION ACCESS:        322  HIT:        247  MISS:         75
LLC PREFETCH  REQUESTED:          0  ISSUED:          0  USEFUL:          0  USELESS:          0
LLC AVERAGE MISS LATENCY: 203.64 cycles

DRAM Statistics
 CHANNEL 0
 RQ ROW_BUFFER_HIT:      76448  ROW_BUFFER_MISS:     775580
 DBUS AVG_CONGESTED_CYCLE:    3.85611
 WQ ROW_BUFFER_HIT:      12244  ROW_BUFFER_MISS:      39211  FULL:          0


CPU 0 Branch Prediction Accuracy: 91.645% MPKI: 7.87682 Average ROB Occupancy at Mispredict: 161.646
Branch type MPKI
BRANCH_DIRECT_JUMP: 0.0017
BRANCH_INDIRECT: 0.00111
BRANCH_CONDITIONAL: 7.87013
BRANCH_DIRECT_CALL: 0.00166
BRANCH_INDIRECT_CALL: 0.0005
BRANCH_RETURN: 0.00172

