
*** ChampSim Multicore Out-of-Order Simulator ***

Warmup Instructions: 10000000
Simulation Instructions: 100000000
Number of CPUs: 1
Off-chip DRAM Size: 4 GiB Channels: 1 Width: 64-bit Data Rate: 3200 MT/s

VirtualMemory physical capacity: 8588881920 num_ppages: 2096895
VirtualMemory page size: 4096 log2_page_size: 12

CPU 0 runs /datasets/cs240c-wi22-a00-public/data/Assignment2/sphinx3_2520B.trace.xz
CPU 0 Bimodal branch predictor
Basic BTB sets: 1024 ways: 8 indirect buffer size: 4096 RAS size: 64
Initialize Hawkeye state
Initialize SRRIP state
Heartbeat CPU 0 instructions: 10000000 cycles: 2589700 heartbeat IPC: 3.86145 cumulative IPC: 3.86145 (Simulation time: 0 hr 0 min 28 sec) 

Warmup complete CPU 0 instructions: 10000004 cycles: 2589701 (Simulation time: 0 hr 0 min 28 sec) 

Heartbeat CPU 0 instructions: 20000002 cycles: 9306013 heartbeat IPC: 1.48891 cumulative IPC: 1.48891 (Simulation time: 0 hr 1 min 10 sec) 
Heartbeat CPU 0 instructions: 30000000 cycles: 15845121 heartbeat IPC: 1.52926 cumulative IPC: 1.50882 (Simulation time: 0 hr 1 min 51 sec) 
Heartbeat CPU 0 instructions: 40000002 cycles: 22203537 heartbeat IPC: 1.57272 cumulative IPC: 1.52953 (Simulation time: 0 hr 2 min 32 sec) 
Heartbeat CPU 0 instructions: 50000004 cycles: 28660471 heartbeat IPC: 1.54872 cumulative IPC: 1.53429 (Simulation time: 0 hr 3 min 12 sec) 
Heartbeat CPU 0 instructions: 60000001 cycles: 34821477 heartbeat IPC: 1.62311 cumulative IPC: 1.55126 (Simulation time: 0 hr 3 min 53 sec) 
Heartbeat CPU 0 instructions: 70000004 cycles: 40677930 heartbeat IPC: 1.70752 cumulative IPC: 1.57529 (Simulation time: 0 hr 4 min 32 sec) 
Heartbeat CPU 0 instructions: 80000000 cycles: 46493510 heartbeat IPC: 1.71952 cumulative IPC: 1.59439 (Simulation time: 0 hr 5 min 11 sec) 
Heartbeat CPU 0 instructions: 90000003 cycles: 52383386 heartbeat IPC: 1.69783 cumulative IPC: 1.60663 (Simulation time: 0 hr 5 min 52 sec) 
Heartbeat CPU 0 instructions: 100000002 cycles: 58398674 heartbeat IPC: 1.66243 cumulative IPC: 1.61264 (Simulation time: 0 hr 6 min 31 sec) 
Heartbeat CPU 0 instructions: 110000003 cycles: 66719670 heartbeat IPC: 1.20178 cumulative IPC: 1.55933 (Simulation time: 0 hr 7 min 19 sec) 
Finished CPU 0 instructions: 100000004 cycles: 64129970 cumulative IPC: 1.55933 (Simulation time: 0 hr 7 min 19 sec) 

ChampSim completed all CPUs

Region of Interest Statistics

CPU 0 cumulative IPC: 1.55933 instructions: 100000004 cycles: 64129970
cpu0_DTLB TOTAL     ACCESS:   16014435  HIT:   15958542  MISS:      55893
cpu0_DTLB LOAD      ACCESS:   14971308  HIT:   14918759  MISS:      52549
cpu0_DTLB RFO       ACCESS:    1043127  HIT:    1039783  MISS:       3344
cpu0_DTLB PREFETCH  ACCESS:          0  HIT:          0  MISS:          0
cpu0_DTLB WRITEBACK ACCESS:          0  HIT:          0  MISS:          0
cpu0_DTLB TRANSLATION ACCESS:          0  HIT:          0  MISS:          0
cpu0_DTLB PREFETCH  REQUESTED:          0  ISSUED:          0  USEFUL:          0  USELESS:          0
cpu0_DTLB AVERAGE MISS LATENCY: 11.404 cycles
cpu0_ITLB TOTAL     ACCESS:    9440943  HIT:    9440901  MISS:         42
cpu0_ITLB LOAD      ACCESS:    9440943  HIT:    9440901  MISS:         42
cpu0_ITLB RFO       ACCESS:          0  HIT:          0  MISS:          0
cpu0_ITLB PREFETCH  ACCESS:          0  HIT:          0  MISS:          0
cpu0_ITLB WRITEBACK ACCESS:          0  HIT:          0  MISS:          0
cpu0_ITLB TRANSLATION ACCESS:          0  HIT:          0  MISS:          0
cpu0_ITLB PREFETCH  REQUESTED:          0  ISSUED:          0  USEFUL:          0  USELESS:          0
cpu0_ITLB AVERAGE MISS LATENCY: 151.476 cycles
cpu0_L1I TOTAL     ACCESS:     267834  HIT:     266534  MISS:       1300
cpu0_L1I LOAD      ACCESS:     267834  HIT:     266534  MISS:       1300
cpu0_L1I RFO       ACCESS:          0  HIT:          0  MISS:          0
cpu0_L1I PREFETCH  ACCESS:          0  HIT:          0  MISS:          0
cpu0_L1I WRITEBACK ACCESS:          0  HIT:          0  MISS:          0
cpu0_L1I TRANSLATION ACCESS:          0  HIT:          0  MISS:          0
cpu0_L1I PREFETCH  REQUESTED:          0  ISSUED:          0  USEFUL:          0  USELESS:          0
cpu0_L1I AVERAGE MISS LATENCY: 148.322 cycles
cpu0_STLB TOTAL     ACCESS:      55935  HIT:      51128  MISS:       4807
cpu0_STLB LOAD      ACCESS:      52591  HIT:      47916  MISS:       4675
cpu0_STLB RFO       ACCESS:       3344  HIT:       3212  MISS:        132
cpu0_STLB PREFETCH  ACCESS:          0  HIT:          0  MISS:          0
cpu0_STLB WRITEBACK ACCESS:          0  HIT:          0  MISS:          0
cpu0_STLB TRANSLATION ACCESS:          0  HIT:          0  MISS:          0
cpu0_STLB PREFETCH  REQUESTED:          0  ISSUED:          0  USEFUL:          0  USELESS:          0
cpu0_STLB AVERAGE MISS LATENCY: 28.6832 cycles
cpu0_L1D TOTAL     ACCESS:   11619229  HIT:   10279847  MISS:    1339382
cpu0_L1D LOAD      ACCESS:   10262634  HIT:    9048900  MISS:    1213734
cpu0_L1D RFO       ACCESS:    1352061  HIT:    1226527  MISS:     125534
cpu0_L1D PREFETCH  ACCESS:          0  HIT:          0  MISS:          0
cpu0_L1D WRITEBACK ACCESS:          0  HIT:          0  MISS:          0
cpu0_L1D TRANSLATION ACCESS:       4534  HIT:       4420  MISS:        114
cpu0_L1D PREFETCH  REQUESTED:          0  ISSUED:          0  USEFUL:          0  USELESS:          0
cpu0_L1D AVERAGE MISS LATENCY: 77.1101 cycles
cpu0_L2C TOTAL     ACCESS:    1472893  HIT:     251120  MISS:    1221773
cpu0_L2C LOAD      ACCESS:    1215033  HIT:     113616  MISS:    1101417
cpu0_L2C RFO       ACCESS:     125533  HIT:       5424  MISS:     120109
cpu0_L2C PREFETCH  ACCESS:          0  HIT:          0  MISS:          0
cpu0_L2C WRITEBACK ACCESS:     132213  HIT:     132051  MISS:        162
cpu0_L2C TRANSLATION ACCESS:        114  HIT:         29  MISS:         85
cpu0_L2C PREFETCH  REQUESTED:          0  ISSUED:          0  USEFUL:          0  USELESS:          0
cpu0_L2C AVERAGE MISS LATENCY: 72.5979 cycles
LLC TOTAL     ACCESS:    1348265  HIT:     955614  MISS:     392651
LLC LOAD      ACCESS:    1101417  HIT:     747728  MISS:     353689
LLC RFO       ACCESS:     120109  HIT:      93652  MISS:      26457
LLC PREFETCH  ACCESS:          0  HIT:          0  MISS:          0
LLC WRITEBACK ACCESS:     126654  HIT:     114204  MISS:      12450
LLC TRANSLATION ACCESS:         85  HIT:         30  MISS:         55
LLC PREFETCH  REQUESTED:          0  ISSUED:          0  USEFUL:          0  USELESS:          0
LLC AVERAGE MISS LATENCY: 160.552 cycles

DRAM Statistics
 CHANNEL 0
 RQ ROW_BUFFER_HIT:     104848  ROW_BUFFER_MISS:     274876
 DBUS AVG_CONGESTED_CYCLE:    3.88435
 WQ ROW_BUFFER_HIT:      12730  ROW_BUFFER_MISS:      19735  FULL:          0


CPU 0 Branch Prediction Accuracy: 93.1904% MPKI: 5.9173 Average ROB Occupancy at Mispredict: 193.019
Branch type MPKI
BRANCH_DIRECT_JUMP: 0.00106
BRANCH_INDIRECT: 0
BRANCH_CONDITIONAL: 5.91482
BRANCH_DIRECT_CALL: 0.00069
BRANCH_INDIRECT_CALL: 3e-05
BRANCH_RETURN: 0.0007

