
*** ChampSim Multicore Out-of-Order Simulator ***

Warmup Instructions: 10000000
Simulation Instructions: 100000000
Number of CPUs: 1
Off-chip DRAM Size: 4 GiB Channels: 1 Width: 64-bit Data Rate: 3200 MT/s

VirtualMemory physical capacity: 8588881920 num_ppages: 2096895
VirtualMemory page size: 4096 log2_page_size: 12

CPU 0 runs /datasets/cs240c-wi22-a00-public/data/Assignment2/wrf_1212B.trace.xz
CPU 0 Bimodal branch predictor
Basic BTB sets: 1024 ways: 8 indirect buffer size: 4096 RAS size: 64
Initialize Hawkeye state
Initialize SRRIP state
Heartbeat CPU 0 instructions: 10000004 cycles: 2552145 heartbeat IPC: 3.91827 cumulative IPC: 3.91827 (Simulation time: 0 hr 0 min 34 sec) 

Warmup complete CPU 0 instructions: 10000004 cycles: 2552145 (Simulation time: 0 hr 0 min 34 sec) 

Heartbeat CPU 0 instructions: 20000000 cycles: 9018758 heartbeat IPC: 1.5464 cumulative IPC: 1.5464 (Simulation time: 0 hr 1 min 23 sec) 
Heartbeat CPU 0 instructions: 30000002 cycles: 15456784 heartbeat IPC: 1.55327 cumulative IPC: 1.54983 (Simulation time: 0 hr 2 min 9 sec) 
Heartbeat CPU 0 instructions: 40000002 cycles: 21898732 heartbeat IPC: 1.55233 cumulative IPC: 1.55066 (Simulation time: 0 hr 2 min 55 sec) 
Heartbeat CPU 0 instructions: 50000003 cycles: 28357111 heartbeat IPC: 1.54838 cumulative IPC: 1.55009 (Simulation time: 0 hr 3 min 43 sec) 
Heartbeat CPU 0 instructions: 60000000 cycles: 34839819 heartbeat IPC: 1.54256 cumulative IPC: 1.54858 (Simulation time: 0 hr 4 min 32 sec) 
Heartbeat CPU 0 instructions: 70000002 cycles: 41483276 heartbeat IPC: 1.50524 cumulative IPC: 1.54118 (Simulation time: 0 hr 5 min 22 sec) 
Heartbeat CPU 0 instructions: 80000001 cycles: 48089008 heartbeat IPC: 1.51384 cumulative IPC: 1.53722 (Simulation time: 0 hr 6 min 12 sec) 
Heartbeat CPU 0 instructions: 90000000 cycles: 54585702 heartbeat IPC: 1.53924 cumulative IPC: 1.53747 (Simulation time: 0 hr 7 min 1 sec) 
Heartbeat CPU 0 instructions: 100000003 cycles: 61024091 heartbeat IPC: 1.55318 cumulative IPC: 1.5392 (Simulation time: 0 hr 7 min 48 sec) 
Heartbeat CPU 0 instructions: 110000001 cycles: 67421066 heartbeat IPC: 1.56324 cumulative IPC: 1.54157 (Simulation time: 0 hr 8 min 38 sec) 
Finished CPU 0 instructions: 100000002 cycles: 64868922 cumulative IPC: 1.54157 (Simulation time: 0 hr 8 min 38 sec) 

ChampSim completed all CPUs

Region of Interest Statistics

CPU 0 cumulative IPC: 1.54157 instructions: 100000002 cycles: 64868922
cpu0_DTLB TOTAL     ACCESS:   18869692  HIT:   18629134  MISS:     240558
cpu0_DTLB LOAD      ACCESS:   12070876  HIT:   11914356  MISS:     156520
cpu0_DTLB RFO       ACCESS:    6798816  HIT:    6714778  MISS:      84038
cpu0_DTLB PREFETCH  ACCESS:          0  HIT:          0  MISS:          0
cpu0_DTLB WRITEBACK ACCESS:          0  HIT:          0  MISS:          0
cpu0_DTLB TRANSLATION ACCESS:          0  HIT:          0  MISS:          0
cpu0_DTLB PREFETCH  REQUESTED:          0  ISSUED:          0  USEFUL:          0  USELESS:          0
cpu0_DTLB AVERAGE MISS LATENCY: 14.8777 cycles
cpu0_ITLB TOTAL     ACCESS:    5651255  HIT:    5651255  MISS:          0
cpu0_ITLB LOAD      ACCESS:    5651255  HIT:    5651255  MISS:          0
cpu0_ITLB RFO       ACCESS:          0  HIT:          0  MISS:          0
cpu0_ITLB PREFETCH  ACCESS:          0  HIT:          0  MISS:          0
cpu0_ITLB WRITEBACK ACCESS:          0  HIT:          0  MISS:          0
cpu0_ITLB TRANSLATION ACCESS:          0  HIT:          0  MISS:          0
cpu0_ITLB PREFETCH  REQUESTED:          0  ISSUED:          0  USEFUL:          0  USELESS:          0
cpu0_ITLB AVERAGE MISS LATENCY: -nan cycles
cpu0_L1I TOTAL     ACCESS:    9013354  HIT:    8969545  MISS:      43809
cpu0_L1I LOAD      ACCESS:    9013354  HIT:    8969545  MISS:      43809
cpu0_L1I RFO       ACCESS:          0  HIT:          0  MISS:          0
cpu0_L1I PREFETCH  ACCESS:          0  HIT:          0  MISS:          0
cpu0_L1I WRITEBACK ACCESS:          0  HIT:          0  MISS:          0
cpu0_L1I TRANSLATION ACCESS:          0  HIT:          0  MISS:          0
cpu0_L1I PREFETCH  REQUESTED:          0  ISSUED:          0  USEFUL:          0  USELESS:          0
cpu0_L1I AVERAGE MISS LATENCY: 11.7577 cycles
cpu0_STLB TOTAL     ACCESS:     240558  HIT:     239295  MISS:       1263
cpu0_STLB LOAD      ACCESS:     156520  HIT:     155271  MISS:       1249
cpu0_STLB RFO       ACCESS:      84038  HIT:      84024  MISS:         14
cpu0_STLB PREFETCH  ACCESS:          0  HIT:          0  MISS:          0
cpu0_STLB WRITEBACK ACCESS:          0  HIT:          0  MISS:          0
cpu0_STLB TRANSLATION ACCESS:          0  HIT:          0  MISS:          0
cpu0_STLB PREFETCH  REQUESTED:          0  ISSUED:          0  USEFUL:          0  USELESS:          0
cpu0_STLB AVERAGE MISS LATENCY: 1100.32 cycles
cpu0_L1D TOTAL     ACCESS:   29575772  HIT:   29172162  MISS:     403610
cpu0_L1D LOAD      ACCESS:   14322471  HIT:   13997822  MISS:     324649
cpu0_L1D RFO       ACCESS:   15252322  HIT:   15173587  MISS:      78735
cpu0_L1D PREFETCH  ACCESS:          0  HIT:          0  MISS:          0
cpu0_L1D WRITEBACK ACCESS:          0  HIT:          0  MISS:          0
cpu0_L1D TRANSLATION ACCESS:        979  HIT:        753  MISS:        226
cpu0_L1D PREFETCH  REQUESTED:          0  ISSUED:          0  USEFUL:          0  USELESS:          0
cpu0_L1D AVERAGE MISS LATENCY: 118.063 cycles
cpu0_L2C TOTAL     ACCESS:     589996  HIT:     511516  MISS:      78480
cpu0_L2C LOAD      ACCESS:     368458  HIT:     291141  MISS:      77317
cpu0_L2C RFO       ACCESS:      77264  HIT:      76348  MISS:        916
cpu0_L2C PREFETCH  ACCESS:          0  HIT:          0  MISS:          0
cpu0_L2C WRITEBACK ACCESS:     144048  HIT:     143819  MISS:        229
cpu0_L2C TRANSLATION ACCESS:        226  HIT:        208  MISS:         18
cpu0_L2C PREFETCH  REQUESTED:          0  ISSUED:          0  USEFUL:          0  USELESS:          0
cpu0_L2C AVERAGE MISS LATENCY: 550.476 cycles
LLC TOTAL     ACCESS:     115127  HIT:      18525  MISS:      96602
LLC LOAD      ACCESS:      77317  HIT:        310  MISS:      77007
LLC RFO       ACCESS:        916  HIT:         11  MISS:        905
LLC PREFETCH  ACCESS:          0  HIT:          0  MISS:          0
LLC WRITEBACK ACCESS:      36876  HIT:      18193  MISS:      18683
LLC TRANSLATION ACCESS:         18  HIT:         11  MISS:          7
LLC PREFETCH  REQUESTED:          0  ISSUED:          0  USEFUL:          0  USELESS:          0
LLC AVERAGE MISS LATENCY: 430.199 cycles

DRAM Statistics
 CHANNEL 0
 RQ ROW_BUFFER_HIT:       2520  ROW_BUFFER_MISS:      75399
 DBUS AVG_CONGESTED_CYCLE:    3.96254
 WQ ROW_BUFFER_HIT:        353  ROW_BUFFER_MISS:      23315  FULL:          0


CPU 0 Branch Prediction Accuracy: 97.2223% MPKI: 4.86341 Average ROB Occupancy at Mispredict: 61.3837
Branch type MPKI
BRANCH_DIRECT_JUMP: 0.00019
BRANCH_INDIRECT: 0
BRANCH_CONDITIONAL: 4.86284
BRANCH_DIRECT_CALL: 0.00021
BRANCH_INDIRECT_CALL: 0
BRANCH_RETURN: 0.00017

