
*** ChampSim Multicore Out-of-Order Simulator ***

Warmup Instructions: 10000000
Simulation Instructions: 100000000
Number of CPUs: 1
Off-chip DRAM Size: 4 GiB Channels: 1 Width: 64-bit Data Rate: 3200 MT/s

VirtualMemory physical capacity: 8588881920 num_ppages: 2096895
VirtualMemory page size: 4096 log2_page_size: 12

CPU 0 runs /datasets/cs240c-wi22-a00-public/data/Assignment2/zeusmp_300B.trace.xz
CPU 0 Bimodal branch predictor
Basic BTB sets: 1024 ways: 8 indirect buffer size: 4096 RAS size: 64
Initialize Hawkeye state
Initialize SRRIP state
Heartbeat CPU 0 instructions: 10000000 cycles: 2814860 heartbeat IPC: 3.55257 cumulative IPC: 3.55257 (Simulation time: 0 hr 0 min 33 sec) 

Warmup complete CPU 0 instructions: 10000002 cycles: 2814863 (Simulation time: 0 hr 0 min 33 sec) 

Heartbeat CPU 0 instructions: 20000004 cycles: 8475158 heartbeat IPC: 1.76669 cumulative IPC: 1.76669 (Simulation time: 0 hr 1 min 23 sec) 
Heartbeat CPU 0 instructions: 30000004 cycles: 14109454 heartbeat IPC: 1.77484 cumulative IPC: 1.77076 (Simulation time: 0 hr 2 min 14 sec) 
Heartbeat CPU 0 instructions: 40000003 cycles: 19719754 heartbeat IPC: 1.78244 cumulative IPC: 1.77463 (Simulation time: 0 hr 3 min 4 sec) 
Heartbeat CPU 0 instructions: 50000004 cycles: 25367271 heartbeat IPC: 1.77069 cumulative IPC: 1.77365 (Simulation time: 0 hr 4 min 6 sec) 
Heartbeat CPU 0 instructions: 60000001 cycles: 30999350 heartbeat IPC: 1.77554 cumulative IPC: 1.77403 (Simulation time: 0 hr 5 min 43 sec) 
Heartbeat CPU 0 instructions: 70000000 cycles: 36589021 heartbeat IPC: 1.78901 cumulative IPC: 1.77651 (Simulation time: 0 hr 7 min 18 sec) 
Heartbeat CPU 0 instructions: 80000000 cycles: 42187633 heartbeat IPC: 1.78616 cumulative IPC: 1.77788 (Simulation time: 0 hr 8 min 50 sec) 
Heartbeat CPU 0 instructions: 90000003 cycles: 47821899 heartbeat IPC: 1.77485 cumulative IPC: 1.7775 (Simulation time: 0 hr 10 min 20 sec) 
Heartbeat CPU 0 instructions: 100000000 cycles: 53495948 heartbeat IPC: 1.76241 cumulative IPC: 1.77581 (Simulation time: 0 hr 11 min 46 sec) 
Heartbeat CPU 0 instructions: 110000000 cycles: 59056674 heartbeat IPC: 1.79833 cumulative IPC: 1.77804 (Simulation time: 0 hr 13 min 2 sec) 
Finished CPU 0 instructions: 100000003 cycles: 56241812 cumulative IPC: 1.77804 (Simulation time: 0 hr 13 min 2 sec) 

ChampSim completed all CPUs

Region of Interest Statistics

CPU 0 cumulative IPC: 1.77804 instructions: 100000003 cycles: 56241812
cpu0_DTLB TOTAL     ACCESS:   16101488  HIT:   15018417  MISS:    1083071
cpu0_DTLB LOAD      ACCESS:   10874709  HIT:    9809400  MISS:    1065309
cpu0_DTLB RFO       ACCESS:    5226779  HIT:    5209017  MISS:      17762
cpu0_DTLB PREFETCH  ACCESS:          0  HIT:          0  MISS:          0
cpu0_DTLB WRITEBACK ACCESS:          0  HIT:          0  MISS:          0
cpu0_DTLB TRANSLATION ACCESS:          0  HIT:          0  MISS:          0
cpu0_DTLB PREFETCH  REQUESTED:          0  ISSUED:          0  USEFUL:          0  USELESS:          0
cpu0_DTLB AVERAGE MISS LATENCY: 10.5158 cycles
cpu0_ITLB TOTAL     ACCESS:    1804170  HIT:    1804170  MISS:          0
cpu0_ITLB LOAD      ACCESS:    1804170  HIT:    1804170  MISS:          0
cpu0_ITLB RFO       ACCESS:          0  HIT:          0  MISS:          0
cpu0_ITLB PREFETCH  ACCESS:          0  HIT:          0  MISS:          0
cpu0_ITLB WRITEBACK ACCESS:          0  HIT:          0  MISS:          0
cpu0_ITLB TRANSLATION ACCESS:          0  HIT:          0  MISS:          0
cpu0_ITLB PREFETCH  REQUESTED:          0  ISSUED:          0  USEFUL:          0  USELESS:          0
cpu0_ITLB AVERAGE MISS LATENCY: -nan cycles
cpu0_L1I TOTAL     ACCESS:    2749686  HIT:    2749686  MISS:          0
cpu0_L1I LOAD      ACCESS:    2749686  HIT:    2749686  MISS:          0
cpu0_L1I RFO       ACCESS:          0  HIT:          0  MISS:          0
cpu0_L1I PREFETCH  ACCESS:          0  HIT:          0  MISS:          0
cpu0_L1I WRITEBACK ACCESS:          0  HIT:          0  MISS:          0
cpu0_L1I TRANSLATION ACCESS:          0  HIT:          0  MISS:          0
cpu0_L1I PREFETCH  REQUESTED:          0  ISSUED:          0  USEFUL:          0  USELESS:          0
cpu0_L1I AVERAGE MISS LATENCY: -nan cycles
cpu0_STLB TOTAL     ACCESS:    1083071  HIT:    1076122  MISS:       6949
cpu0_STLB LOAD      ACCESS:    1065309  HIT:    1060413  MISS:       4896
cpu0_STLB RFO       ACCESS:      17762  HIT:      15709  MISS:       2053
cpu0_STLB PREFETCH  ACCESS:          0  HIT:          0  MISS:          0
cpu0_STLB WRITEBACK ACCESS:          0  HIT:          0  MISS:          0
cpu0_STLB TRANSLATION ACCESS:          0  HIT:          0  MISS:          0
cpu0_STLB PREFETCH  REQUESTED:          0  ISSUED:          0  USEFUL:          0  USELESS:          0
cpu0_STLB AVERAGE MISS LATENCY: 211.411 cycles
cpu0_L1D TOTAL     ACCESS:   18599180  HIT:   17938382  MISS:     660798
cpu0_L1D LOAD      ACCESS:   10915424  HIT:   10434680  MISS:     480744
cpu0_L1D RFO       ACCESS:    7677120  HIT:    7501703  MISS:     175417
cpu0_L1D PREFETCH  ACCESS:          0  HIT:          0  MISS:          0
cpu0_L1D WRITEBACK ACCESS:          0  HIT:          0  MISS:          0
cpu0_L1D TRANSLATION ACCESS:       6636  HIT:       1999  MISS:       4637
cpu0_L1D PREFETCH  REQUESTED:          0  ISSUED:          0  USEFUL:          0  USELESS:          0
cpu0_L1D AVERAGE MISS LATENCY: 137.39 cycles
cpu0_L2C TOTAL     ACCESS:     838869  HIT:     409944  MISS:     428925
cpu0_L2C LOAD      ACCESS:     480717  HIT:     197413  MISS:     283304
cpu0_L2C RFO       ACCESS:     175371  HIT:      34915  MISS:     140456
cpu0_L2C PREFETCH  ACCESS:          0  HIT:          0  MISS:          0
cpu0_L2C WRITEBACK ACCESS:     178144  HIT:     173213  MISS:       4931
cpu0_L2C TRANSLATION ACCESS:       4637  HIT:       4403  MISS:        234
cpu0_L2C PREFETCH  REQUESTED:          0  ISSUED:          0  USEFUL:          0  USELESS:          0
cpu0_L2C AVERAGE MISS LATENCY: 194.699 cycles
LLC TOTAL     ACCESS:     580543  HIT:     244002  MISS:     336541
LLC LOAD      ACCESS:     283304  HIT:      92947  MISS:     190357
LLC RFO       ACCESS:     140456  HIT:      63874  MISS:      76582
LLC PREFETCH  ACCESS:          0  HIT:          0  MISS:          0
LLC WRITEBACK ACCESS:     156549  HIT:      87093  MISS:      69456
LLC TRANSLATION ACCESS:        234  HIT:         88  MISS:        146
LLC PREFETCH  REQUESTED:          0  ISSUED:          0  USEFUL:          0  USELESS:          0
LLC AVERAGE MISS LATENCY: 221.688 cycles

DRAM Statistics
 CHANNEL 0
 RQ ROW_BUFFER_HIT:      19024  ROW_BUFFER_MISS:     248060
 DBUS AVG_CONGESTED_CYCLE:    3.99794
 WQ ROW_BUFFER_HIT:       5300  ROW_BUFFER_MISS:      76438  FULL:          0


CPU 0 Branch Prediction Accuracy: 98.8423% MPKI: 0.45019 Average ROB Occupancy at Mispredict: 205.644
Branch type MPKI
BRANCH_DIRECT_JUMP: 0
BRANCH_INDIRECT: 0
BRANCH_CONDITIONAL: 0.45019
BRANCH_DIRECT_CALL: 0
BRANCH_INDIRECT_CALL: 0
BRANCH_RETURN: 0

