
*** ChampSim Multicore Out-of-Order Simulator ***

Warmup Instructions: 10000000
Simulation Instructions: 100000000
Number of CPUs: 1
Off-chip DRAM Size: 4 GiB Channels: 1 Width: 64-bit Data Rate: 3200 MT/s

VirtualMemory physical capacity: 8588881920 num_ppages: 2096895
VirtualMemory page size: 4096 log2_page_size: 12

CPU 0 runs /datasets/cs240c-wi22-a00-public/data/Assignment2/astar_163B.trace.xz
CPU 0 Bimodal branch predictor
Basic BTB sets: 1024 ways: 8 indirect buffer size: 4096 RAS size: 64
Initialize Hawkeye state
Initialize SRRIP state
Heartbeat CPU 0 instructions: 10000003 cycles: 2500067 heartbeat IPC: 3.99989 cumulative IPC: 3.99989 (Simulation time: 0 hr 0 min 37 sec) 

Warmup complete CPU 0 instructions: 10000003 cycles: 2500067 (Simulation time: 0 hr 0 min 37 sec) 

Heartbeat CPU 0 instructions: 20000001 cycles: 19922186 heartbeat IPC: 0.573983 cumulative IPC: 0.573983 (Simulation time: 0 hr 1 min 32 sec) 
Heartbeat CPU 0 instructions: 30000002 cycles: 35836963 heartbeat IPC: 0.628347 cumulative IPC: 0.599936 (Simulation time: 0 hr 2 min 22 sec) 
Heartbeat CPU 0 instructions: 40000000 cycles: 50581423 heartbeat IPC: 0.678221 cumulative IPC: 0.623942 (Simulation time: 0 hr 3 min 8 sec) 
Heartbeat CPU 0 instructions: 50000001 cycles: 65605240 heartbeat IPC: 0.66561 cumulative IPC: 0.633862 (Simulation time: 0 hr 3 min 55 sec) 
Heartbeat CPU 0 instructions: 60000003 cycles: 80277080 heartbeat IPC: 0.681578 cumulative IPC: 0.642863 (Simulation time: 0 hr 4 min 39 sec) 
Heartbeat CPU 0 instructions: 70000002 cycles: 95001159 heartbeat IPC: 0.67916 cumulative IPC: 0.648641 (Simulation time: 0 hr 5 min 21 sec) 
Heartbeat CPU 0 instructions: 80000000 cycles: 109853835 heartbeat IPC: 0.673279 cumulative IPC: 0.65205 (Simulation time: 0 hr 6 min 1 sec) 
Heartbeat CPU 0 instructions: 90000001 cycles: 124491299 heartbeat IPC: 0.683179 cumulative IPC: 0.655785 (Simulation time: 0 hr 6 min 39 sec) 
Heartbeat CPU 0 instructions: 100000003 cycles: 139382311 heartbeat IPC: 0.671546 cumulative IPC: 0.657499 (Simulation time: 0 hr 7 min 12 sec) 
Heartbeat CPU 0 instructions: 110000000 cycles: 154483760 heartbeat IPC: 0.662188 cumulative IPC: 0.657965 (Simulation time: 0 hr 7 min 43 sec) 
Finished CPU 0 instructions: 100000000 cycles: 151983694 cumulative IPC: 0.657965 (Simulation time: 0 hr 7 min 43 sec) 

ChampSim completed all CPUs

Region of Interest Statistics

CPU 0 cumulative IPC: 0.657965 instructions: 100000000 cycles: 151983694
cpu0_DTLB TOTAL     ACCESS:   21351900  HIT:   21042934  MISS:     308966
cpu0_DTLB LOAD      ACCESS:   16588150  HIT:   16287156  MISS:     300994
cpu0_DTLB RFO       ACCESS:    4763750  HIT:    4755778  MISS:       7972
cpu0_DTLB PREFETCH  ACCESS:          0  HIT:          0  MISS:          0
cpu0_DTLB WRITEBACK ACCESS:          0  HIT:          0  MISS:          0
cpu0_DTLB TRANSLATION ACCESS:          0  HIT:          0  MISS:          0
cpu0_DTLB PREFETCH  REQUESTED:          0  ISSUED:          0  USEFUL:          0  USELESS:          0
cpu0_DTLB AVERAGE MISS LATENCY: 10.2786 cycles
cpu0_ITLB TOTAL     ACCESS:   11988835  HIT:   11988828  MISS:          7
cpu0_ITLB LOAD      ACCESS:   11988835  HIT:   11988828  MISS:          7
cpu0_ITLB RFO       ACCESS:          0  HIT:          0  MISS:          0
cpu0_ITLB PREFETCH  ACCESS:          0  HIT:          0  MISS:          0
cpu0_ITLB WRITEBACK ACCESS:          0  HIT:          0  MISS:          0
cpu0_ITLB TRANSLATION ACCESS:          0  HIT:          0  MISS:          0
cpu0_ITLB PREFETCH  REQUESTED:          0  ISSUED:          0  USEFUL:          0  USELESS:          0
cpu0_ITLB AVERAGE MISS LATENCY: 347.286 cycles
cpu0_L1I TOTAL     ACCESS:      30584  HIT:      30498  MISS:         86
cpu0_L1I LOAD      ACCESS:      30584  HIT:      30498  MISS:         86
cpu0_L1I RFO       ACCESS:          0  HIT:          0  MISS:          0
cpu0_L1I PREFETCH  ACCESS:          0  HIT:          0  MISS:          0
cpu0_L1I WRITEBACK ACCESS:          0  HIT:          0  MISS:          0
cpu0_L1I TRANSLATION ACCESS:          0  HIT:          0  MISS:          0
cpu0_L1I PREFETCH  REQUESTED:          0  ISSUED:          0  USEFUL:          0  USELESS:          0
cpu0_L1I AVERAGE MISS LATENCY: 277.116 cycles
cpu0_STLB TOTAL     ACCESS:     308973  HIT:     291503  MISS:      17470
cpu0_STLB LOAD      ACCESS:     301001  HIT:     285663  MISS:      15338
cpu0_STLB RFO       ACCESS:       7972  HIT:       5840  MISS:       2132
cpu0_STLB PREFETCH  ACCESS:          0  HIT:          0  MISS:          0
cpu0_STLB WRITEBACK ACCESS:          0  HIT:          0  MISS:          0
cpu0_STLB TRANSLATION ACCESS:          0  HIT:          0  MISS:          0
cpu0_STLB PREFETCH  REQUESTED:          0  ISSUED:          0  USEFUL:          0  USELESS:          0
cpu0_STLB AVERAGE MISS LATENCY: 22.6179 cycles
cpu0_L1D TOTAL     ACCESS:   27130905  HIT:   26716485  MISS:     414420
cpu0_L1D LOAD      ACCESS:   16913696  HIT:   16580336  MISS:     333360
cpu0_L1D RFO       ACCESS:   10199795  HIT:   10118996  MISS:      80799
cpu0_L1D PREFETCH  ACCESS:          0  HIT:          0  MISS:          0
cpu0_L1D WRITEBACK ACCESS:          0  HIT:          0  MISS:          0
cpu0_L1D TRANSLATION ACCESS:      17414  HIT:      17153  MISS:        261
cpu0_L1D PREFETCH  REQUESTED:          0  ISSUED:          0  USEFUL:          0  USELESS:          0
cpu0_L1D AVERAGE MISS LATENCY: 64.9195 cycles
cpu0_L2C TOTAL     ACCESS:     633377  HIT:     441419  MISS:     191958
cpu0_L2C LOAD      ACCESS:     333381  HIT:     209341  MISS:     124040
cpu0_L2C RFO       ACCESS:      80799  HIT:      12919  MISS:      67880
cpu0_L2C PREFETCH  ACCESS:          0  HIT:          0  MISS:          0
cpu0_L2C WRITEBACK ACCESS:     218936  HIT:     218932  MISS:          4
cpu0_L2C TRANSLATION ACCESS:        261  HIT:        227  MISS:         34
cpu0_L2C PREFETCH  REQUESTED:          0  ISSUED:          0  USEFUL:          0  USELESS:          0
cpu0_L2C AVERAGE MISS LATENCY: 116.529 cycles
LLC TOTAL     ACCESS:     335200  HIT:     178431  MISS:     156769
LLC LOAD      ACCESS:     124039  HIT:      42093  MISS:      81946
LLC RFO       ACCESS:      67880  HIT:      31922  MISS:      35958
LLC PREFETCH  ACCESS:          0  HIT:          0  MISS:          0
LLC WRITEBACK ACCESS:     143247  HIT:     104396  MISS:      38851
LLC TRANSLATION ACCESS:         34  HIT:         20  MISS:         14
LLC PREFETCH  REQUESTED:          0  ISSUED:          0  USEFUL:          0  USELESS:          0
LLC AVERAGE MISS LATENCY: 116.973 cycles

DRAM Statistics
 CHANNEL 0
 RQ ROW_BUFFER_HIT:      10776  ROW_BUFFER_MISS:     107139
 DBUS AVG_CONGESTED_CYCLE:    3.81793
 WQ ROW_BUFFER_HIT:       6598  ROW_BUFFER_MISS:      70250  FULL:          0


CPU 0 Branch Prediction Accuracy: 70.0225% MPKI: 43.9041 Average ROB Occupancy at Mispredict: 12.6502
Branch type MPKI
BRANCH_DIRECT_JUMP: 0.00019
BRANCH_INDIRECT: 0
BRANCH_CONDITIONAL: 43.9037
BRANCH_DIRECT_CALL: 0.00012
BRANCH_INDIRECT_CALL: 0
BRANCH_RETURN: 0.00012

