
*** ChampSim Multicore Out-of-Order Simulator ***

Warmup Instructions: 10000000
Simulation Instructions: 100000000
Number of CPUs: 1
Off-chip DRAM Size: 4 GiB Channels: 1 Width: 64-bit Data Rate: 3200 MT/s

VirtualMemory physical capacity: 8588881920 num_ppages: 2096895
VirtualMemory page size: 4096 log2_page_size: 12

CPU 0 runs /datasets/cs240c-wi22-a00-public/data/Assignment2/GemsFDTD_716B.trace.xz
CPU 0 Bimodal branch predictor
Basic BTB sets: 1024 ways: 8 indirect buffer size: 4096 RAS size: 64
Initialize Hawkeye state
Initialize SRRIP state
Heartbeat CPU 0 instructions: 10000004 cycles: 2536409 heartbeat IPC: 3.94258 cumulative IPC: 3.94258 (Simulation time: 0 hr 0 min 19 sec) 

Warmup complete CPU 0 instructions: 10000004 cycles: 2536409 (Simulation time: 0 hr 0 min 19 sec) 

Heartbeat CPU 0 instructions: 20000003 cycles: 24813078 heartbeat IPC: 0.4489 cumulative IPC: 0.4489 (Simulation time: 0 hr 1 min 48 sec) 
Heartbeat CPU 0 instructions: 30000002 cycles: 38527703 heartbeat IPC: 0.729149 cumulative IPC: 0.55569 (Simulation time: 0 hr 2 min 53 sec) 
Heartbeat CPU 0 instructions: 40000000 cycles: 49925557 heartbeat IPC: 0.877358 cumulative IPC: 0.633056 (Simulation time: 0 hr 3 min 51 sec) 
Heartbeat CPU 0 instructions: 50000002 cycles: 67971249 heartbeat IPC: 0.554149 cumulative IPC: 0.611295 (Simulation time: 0 hr 5 min 11 sec) 
Heartbeat CPU 0 instructions: 60000002 cycles: 83807221 heartbeat IPC: 0.631474 cumulative IPC: 0.615227 (Simulation time: 0 hr 6 min 24 sec) 
Heartbeat CPU 0 instructions: 70000001 cycles: 95861841 heartbeat IPC: 0.829557 cumulative IPC: 0.642912 (Simulation time: 0 hr 7 min 27 sec) 
Heartbeat CPU 0 instructions: 80000003 cycles: 110532328 heartbeat IPC: 0.681641 cumulative IPC: 0.648173 (Simulation time: 0 hr 8 min 37 sec) 
Heartbeat CPU 0 instructions: 90000001 cycles: 128913137 heartbeat IPC: 0.544046 cumulative IPC: 0.633028 (Simulation time: 0 hr 9 min 57 sec) 
Heartbeat CPU 0 instructions: 100000001 cycles: 141710162 heartbeat IPC: 0.781432 cumulative IPC: 0.646674 (Simulation time: 0 hr 11 min 2 sec) 
Heartbeat CPU 0 instructions: 110000004 cycles: 153193830 heartbeat IPC: 0.870802 cumulative IPC: 0.663758 (Simulation time: 0 hr 12 min 2 sec) 
Finished CPU 0 instructions: 100000000 cycles: 150657421 cumulative IPC: 0.663758 (Simulation time: 0 hr 12 min 2 sec) 

ChampSim completed all CPUs

Region of Interest Statistics

CPU 0 cumulative IPC: 0.663758 instructions: 100000000 cycles: 150657421
cpu0_DTLB TOTAL     ACCESS:   29899476  HIT:   26869593  MISS:    3029883
cpu0_DTLB LOAD      ACCESS:   20921389  HIT:   17892388  MISS:    3029001
cpu0_DTLB RFO       ACCESS:    8978087  HIT:    8977205  MISS:        882
cpu0_DTLB PREFETCH  ACCESS:          0  HIT:          0  MISS:          0
cpu0_DTLB WRITEBACK ACCESS:          0  HIT:          0  MISS:          0
cpu0_DTLB TRANSLATION ACCESS:          0  HIT:          0  MISS:          0
cpu0_DTLB PREFETCH  REQUESTED:          0  ISSUED:          0  USEFUL:          0  USELESS:          0
cpu0_DTLB AVERAGE MISS LATENCY: 13.851 cycles
cpu0_ITLB TOTAL     ACCESS:    1847733  HIT:    1847731  MISS:          2
cpu0_ITLB LOAD      ACCESS:    1847733  HIT:    1847731  MISS:          2
cpu0_ITLB RFO       ACCESS:          0  HIT:          0  MISS:          0
cpu0_ITLB PREFETCH  ACCESS:          0  HIT:          0  MISS:          0
cpu0_ITLB WRITEBACK ACCESS:          0  HIT:          0  MISS:          0
cpu0_ITLB TRANSLATION ACCESS:          0  HIT:          0  MISS:          0
cpu0_ITLB PREFETCH  REQUESTED:          0  ISSUED:          0  USEFUL:          0  USELESS:          0
cpu0_ITLB AVERAGE MISS LATENCY: 475.5 cycles
cpu0_L1I TOTAL     ACCESS:    7857046  HIT:    7856924  MISS:        122
cpu0_L1I LOAD      ACCESS:    7857046  HIT:    7856924  MISS:        122
cpu0_L1I RFO       ACCESS:          0  HIT:          0  MISS:          0
cpu0_L1I PREFETCH  ACCESS:          0  HIT:          0  MISS:          0
cpu0_L1I WRITEBACK ACCESS:          0  HIT:          0  MISS:          0
cpu0_L1I TRANSLATION ACCESS:          0  HIT:          0  MISS:          0
cpu0_L1I PREFETCH  REQUESTED:          0  ISSUED:          0  USEFUL:          0  USELESS:          0
cpu0_L1I AVERAGE MISS LATENCY: 276.049 cycles
cpu0_STLB TOTAL     ACCESS:    3029886  HIT:    2757430  MISS:     272456
cpu0_STLB LOAD      ACCESS:    3029004  HIT:    2756548  MISS:     272456
cpu0_STLB RFO       ACCESS:        882  HIT:        882  MISS:          0
cpu0_STLB PREFETCH  ACCESS:          0  HIT:          0  MISS:          0
cpu0_STLB WRITEBACK ACCESS:          0  HIT:          0  MISS:          0
cpu0_STLB TRANSLATION ACCESS:          0  HIT:          0  MISS:          0
cpu0_STLB PREFETCH  REQUESTED:          0  ISSUED:          0  USEFUL:          0  USELESS:          0
cpu0_STLB AVERAGE MISS LATENCY: 51.5479 cycles
cpu0_L1D TOTAL     ACCESS:   34797819  HIT:   26555012  MISS:    8242807
cpu0_L1D LOAD      ACCESS:   22663978  HIT:   14444777  MISS:    8219201
cpu0_L1D RFO       ACCESS:   11866735  HIT:   11866729  MISS:          6
cpu0_L1D PREFETCH  ACCESS:          0  HIT:          0  MISS:          0
cpu0_L1D WRITEBACK ACCESS:          0  HIT:          0  MISS:          0
cpu0_L1D TRANSLATION ACCESS:     267106  HIT:     243506  MISS:      23600
cpu0_L1D PREFETCH  REQUESTED:          0  ISSUED:          0  USEFUL:          0  USELESS:          0
cpu0_L1D AVERAGE MISS LATENCY: 69.0473 cycles
cpu0_L2C TOTAL     ACCESS:    9425513  HIT:    7934528  MISS:    1490985
cpu0_L2C LOAD      ACCESS:    8219323  HIT:    6728965  MISS:    1490358
cpu0_L2C RFO       ACCESS:          6  HIT:          6  MISS:          0
cpu0_L2C PREFETCH  ACCESS:          0  HIT:          0  MISS:          0
cpu0_L2C WRITEBACK ACCESS:    1182584  HIT:    1182544  MISS:         40
cpu0_L2C TRANSLATION ACCESS:      23600  HIT:      23013  MISS:        587
cpu0_L2C PREFETCH  REQUESTED:          0  ISSUED:          0  USEFUL:          0  USELESS:          0
cpu0_L2C AVERAGE MISS LATENCY: 319.017 cycles
LLC TOTAL     ACCESS:    1524867  HIT:      96117  MISS:    1428750
LLC LOAD      ACCESS:    1490267  HIT:      63124  MISS:    1427143
LLC RFO       ACCESS:          0  HIT:          0  MISS:          0
LLC PREFETCH  ACCESS:          0  HIT:          0  MISS:          0
LLC WRITEBACK ACCESS:      34013  HIT:      32716  MISS:       1297
LLC TRANSLATION ACCESS:        587  HIT:        277  MISS:        310
LLC PREFETCH  REQUESTED:          0  ISSUED:          0  USEFUL:          0  USELESS:          0
LLC AVERAGE MISS LATENCY: 311 cycles

DRAM Statistics
 CHANNEL 0
 RQ ROW_BUFFER_HIT:         69  ROW_BUFFER_MISS:    1427366
 DBUS AVG_CONGESTED_CYCLE:    3.94995
 WQ ROW_BUFFER_HIT:        829  ROW_BUFFER_MISS:      12796  FULL:          0


CPU 0 Branch Prediction Accuracy: 98.9038% MPKI: 0.06477 Average ROB Occupancy at Mispredict: 248.584
Branch type MPKI
BRANCH_DIRECT_JUMP: 0
BRANCH_INDIRECT: 0
BRANCH_CONDITIONAL: 0.06477
BRANCH_DIRECT_CALL: 0
BRANCH_INDIRECT_CALL: 0
BRANCH_RETURN: 0

