
*** ChampSim Multicore Out-of-Order Simulator ***

Warmup Instructions: 10000000
Simulation Instructions: 100000000
Number of CPUs: 1
Off-chip DRAM Size: 4 GiB Channels: 1 Width: 64-bit Data Rate: 3200 MT/s

VirtualMemory physical capacity: 8588881920 num_ppages: 2096895
VirtualMemory page size: 4096 log2_page_size: 12

CPU 0 runs /datasets/cs240c-wi22-a00-public/data/Assignment2/leslie3d_1116B.trace.xz
CPU 0 Bimodal branch predictor
Basic BTB sets: 1024 ways: 8 indirect buffer size: 4096 RAS size: 64
Initialize Hawkeye state
Initialize SRRIP state
Heartbeat CPU 0 instructions: 10000000 cycles: 3692439 heartbeat IPC: 2.70824 cumulative IPC: 2.70824 (Simulation time: 0 hr 0 min 33 sec) 

Warmup complete CPU 0 instructions: 10000005 cycles: 3692440 (Simulation time: 0 hr 0 min 33 sec) 

Heartbeat CPU 0 instructions: 20000000 cycles: 12666248 heartbeat IPC: 1.11435 cumulative IPC: 1.11435 (Simulation time: 0 hr 1 min 30 sec) 
Heartbeat CPU 0 instructions: 30000004 cycles: 21741841 heartbeat IPC: 1.10186 cumulative IPC: 1.10807 (Simulation time: 0 hr 2 min 27 sec) 
Heartbeat CPU 0 instructions: 40000004 cycles: 33377006 heartbeat IPC: 0.859464 cumulative IPC: 1.01063 (Simulation time: 0 hr 3 min 32 sec) 
Heartbeat CPU 0 instructions: 50000000 cycles: 55351241 heartbeat IPC: 0.455078 cumulative IPC: 0.774311 (Simulation time: 0 hr 5 min 11 sec) 
Heartbeat CPU 0 instructions: 60000001 cycles: 107728491 heartbeat IPC: 0.190923 cumulative IPC: 0.480603 (Simulation time: 0 hr 8 min 30 sec) 
Heartbeat CPU 0 instructions: 70000000 cycles: 122276646 heartbeat IPC: 0.687372 cumulative IPC: 0.50597 (Simulation time: 0 hr 9 min 48 sec) 
Heartbeat CPU 0 instructions: 80000001 cycles: 135177585 heartbeat IPC: 0.775137 cumulative IPC: 0.53238 (Simulation time: 0 hr 11 min 0 sec) 
Heartbeat CPU 0 instructions: 90000004 cycles: 148391643 heartbeat IPC: 0.75677 cumulative IPC: 0.552871 (Simulation time: 0 hr 12 min 12 sec) 
Heartbeat CPU 0 instructions: 100000002 cycles: 161438919 heartbeat IPC: 0.766443 cumulative IPC: 0.570536 (Simulation time: 0 hr 13 min 24 sec) 
Heartbeat CPU 0 instructions: 110000002 cycles: 178927681 heartbeat IPC: 0.571796 cumulative IPC: 0.570661 (Simulation time: 0 hr 14 min 45 sec) 
Finished CPU 0 instructions: 100000002 cycles: 175235242 cumulative IPC: 0.570661 (Simulation time: 0 hr 14 min 45 sec) 

ChampSim completed all CPUs

Region of Interest Statistics

CPU 0 cumulative IPC: 0.570661 instructions: 100000002 cycles: 175235242
cpu0_DTLB TOTAL     ACCESS:   25739439  HIT:   25673688  MISS:      65751
cpu0_DTLB LOAD      ACCESS:   21123434  HIT:   21071742  MISS:      51692
cpu0_DTLB RFO       ACCESS:    4616005  HIT:    4601946  MISS:      14059
cpu0_DTLB PREFETCH  ACCESS:          0  HIT:          0  MISS:          0
cpu0_DTLB WRITEBACK ACCESS:          0  HIT:          0  MISS:          0
cpu0_DTLB TRANSLATION ACCESS:          0  HIT:          0  MISS:          0
cpu0_DTLB PREFETCH  REQUESTED:          0  ISSUED:          0  USEFUL:          0  USELESS:          0
cpu0_DTLB AVERAGE MISS LATENCY: 85.0613 cycles
cpu0_ITLB TOTAL     ACCESS:    2865040  HIT:    2865022  MISS:         18
cpu0_ITLB LOAD      ACCESS:    2865040  HIT:    2865022  MISS:         18
cpu0_ITLB RFO       ACCESS:          0  HIT:          0  MISS:          0
cpu0_ITLB PREFETCH  ACCESS:          0  HIT:          0  MISS:          0
cpu0_ITLB WRITEBACK ACCESS:          0  HIT:          0  MISS:          0
cpu0_ITLB TRANSLATION ACCESS:          0  HIT:          0  MISS:          0
cpu0_ITLB PREFETCH  REQUESTED:          0  ISSUED:          0  USEFUL:          0  USELESS:          0
cpu0_ITLB AVERAGE MISS LATENCY: 307.778 cycles
cpu0_L1I TOTAL     ACCESS:    1777293  HIT:    1776821  MISS:        472
cpu0_L1I LOAD      ACCESS:    1777293  HIT:    1776821  MISS:        472
cpu0_L1I RFO       ACCESS:          0  HIT:          0  MISS:          0
cpu0_L1I PREFETCH  ACCESS:          0  HIT:          0  MISS:          0
cpu0_L1I WRITEBACK ACCESS:          0  HIT:          0  MISS:          0
cpu0_L1I TRANSLATION ACCESS:          0  HIT:          0  MISS:          0
cpu0_L1I PREFETCH  REQUESTED:          0  ISSUED:          0  USEFUL:          0  USELESS:          0
cpu0_L1I AVERAGE MISS LATENCY: 357.049 cycles
cpu0_STLB TOTAL     ACCESS:      65769  HIT:      34145  MISS:      31624
cpu0_STLB LOAD      ACCESS:      51710  HIT:      28244  MISS:      23466
cpu0_STLB RFO       ACCESS:      14059  HIT:       5901  MISS:       8158
cpu0_STLB PREFETCH  ACCESS:          0  HIT:          0  MISS:          0
cpu0_STLB WRITEBACK ACCESS:          0  HIT:          0  MISS:          0
cpu0_STLB TRANSLATION ACCESS:          0  HIT:          0  MISS:          0
cpu0_STLB PREFETCH  REQUESTED:          0  ISSUED:          0  USEFUL:          0  USELESS:          0
cpu0_STLB AVERAGE MISS LATENCY: 158.3 cycles
cpu0_L1D TOTAL     ACCESS:   24582596  HIT:   21172423  MISS:    3410173
cpu0_L1D LOAD      ACCESS:   16428340  HIT:   13811213  MISS:    2617127
cpu0_L1D RFO       ACCESS:    8124920  HIT:    7335510  MISS:     789410
cpu0_L1D PREFETCH  ACCESS:          0  HIT:          0  MISS:          0
cpu0_L1D WRITEBACK ACCESS:          0  HIT:          0  MISS:          0
cpu0_L1D TRANSLATION ACCESS:      29336  HIT:      25700  MISS:       3636
cpu0_L1D PREFETCH  REQUESTED:          0  ISSUED:          0  USEFUL:          0  USELESS:          0
cpu0_L1D AVERAGE MISS LATENCY: 474.164 cycles
cpu0_L2C TOTAL     ACCESS:    4455054  HIT:    1718436  MISS:    2736618
cpu0_L2C LOAD      ACCESS:    2617554  HIT:     507682  MISS:    2109872
cpu0_L2C RFO       ACCESS:     789330  HIT:     162847  MISS:     626483
cpu0_L2C PREFETCH  ACCESS:          0  HIT:          0  MISS:          0
cpu0_L2C WRITEBACK ACCESS:    1044534  HIT:    1044369  MISS:        165
cpu0_L2C TRANSLATION ACCESS:       3636  HIT:       3538  MISS:         98
cpu0_L2C PREFETCH  REQUESTED:          0  ISSUED:          0  USEFUL:          0  USELESS:          0
cpu0_L2C AVERAGE MISS LATENCY: 577.191 cycles
LLC TOTAL     ACCESS:    3497165  HIT:     798284  MISS:    2698881
LLC LOAD      ACCESS:    2109872  HIT:     500057  MISS:    1609815
LLC RFO       ACCESS:     626483  HIT:     106623  MISS:     519860
LLC PREFETCH  ACCESS:          0  HIT:          0  MISS:          0
LLC WRITEBACK ACCESS:     760712  HIT:     191583  MISS:     569129
LLC TRANSLATION ACCESS:         98  HIT:         21  MISS:         77
LLC PREFETCH  REQUESTED:          0  ISSUED:          0  USEFUL:          0  USELESS:          0
LLC AVERAGE MISS LATENCY: 563.927 cycles

DRAM Statistics
 CHANNEL 0
 RQ ROW_BUFFER_HIT:     214265  ROW_BUFFER_MISS:    1915146
 DBUS AVG_CONGESTED_CYCLE:    3.96043
 WQ ROW_BUFFER_HIT:      61909  ROW_BUFFER_MISS:     606386  FULL:      28606


CPU 0 Branch Prediction Accuracy: 96.8713% MPKI: 1.55302 Average ROB Occupancy at Mispredict: 298.149
Branch type MPKI
BRANCH_DIRECT_JUMP: 0.00018
BRANCH_INDIRECT: 0
BRANCH_CONDITIONAL: 1.55064
BRANCH_DIRECT_CALL: 0.00113
BRANCH_INDIRECT_CALL: 0
BRANCH_RETURN: 0.00107

