
*** ChampSim Multicore Out-of-Order Simulator ***

Warmup Instructions: 10000000
Simulation Instructions: 100000000
Number of CPUs: 1
Off-chip DRAM Size: 4 GiB Channels: 1 Width: 64-bit Data Rate: 3200 MT/s

VirtualMemory physical capacity: 8588881920 num_ppages: 2096895
VirtualMemory page size: 4096 log2_page_size: 12

CPU 0 runs /datasets/cs240c-wi22-a00-public/data/Assignment2/soplex_205B.trace.xz
CPU 0 Bimodal branch predictor
Basic BTB sets: 1024 ways: 8 indirect buffer size: 4096 RAS size: 64
Initialize Hawkeye state
Initialize SRRIP state
Heartbeat CPU 0 instructions: 10000002 cycles: 2865166 heartbeat IPC: 3.4902 cumulative IPC: 3.4902 (Simulation time: 0 hr 0 min 22 sec) 

Warmup complete CPU 0 instructions: 10000002 cycles: 2865166 (Simulation time: 0 hr 0 min 22 sec) 

Heartbeat CPU 0 instructions: 20000004 cycles: 47037774 heartbeat IPC: 0.226385 cumulative IPC: 0.226385 (Simulation time: 0 hr 2 min 24 sec) 
Heartbeat CPU 0 instructions: 30000004 cycles: 82631237 heartbeat IPC: 0.28095 cumulative IPC: 0.250733 (Simulation time: 0 hr 3 min 28 sec) 
Heartbeat CPU 0 instructions: 40000004 cycles: 110599445 heartbeat IPC: 0.357549 cumulative IPC: 0.278463 (Simulation time: 0 hr 4 min 34 sec) 
Heartbeat CPU 0 instructions: 50000001 cycles: 141156583 heartbeat IPC: 0.327256 cumulative IPC: 0.289244 (Simulation time: 0 hr 5 min 43 sec) 
Heartbeat CPU 0 instructions: 60000000 cycles: 168260001 heartbeat IPC: 0.368957 cumulative IPC: 0.302307 (Simulation time: 0 hr 6 min 45 sec) 
Heartbeat CPU 0 instructions: 70000000 cycles: 198208111 heartbeat IPC: 0.333911 cumulative IPC: 0.307152 (Simulation time: 0 hr 7 min 58 sec) 
Heartbeat CPU 0 instructions: 80000003 cycles: 226090527 heartbeat IPC: 0.358649 cumulative IPC: 0.313584 (Simulation time: 0 hr 8 min 59 sec) 
Heartbeat CPU 0 instructions: 90000000 cycles: 258231403 heartbeat IPC: 0.31113 cumulative IPC: 0.313276 (Simulation time: 0 hr 10 min 15 sec) 
Heartbeat CPU 0 instructions: 100000002 cycles: 284926473 heartbeat IPC: 0.374601 cumulative IPC: 0.31908 (Simulation time: 0 hr 11 min 12 sec) 
Heartbeat CPU 0 instructions: 110000000 cycles: 337368825 heartbeat IPC: 0.190686 cumulative IPC: 0.29895 (Simulation time: 0 hr 13 min 1 sec) 
Finished CPU 0 instructions: 100000003 cycles: 334503660 cumulative IPC: 0.29895 (Simulation time: 0 hr 13 min 1 sec) 

ChampSim completed all CPUs

Region of Interest Statistics

CPU 0 cumulative IPC: 0.29895 instructions: 100000003 cycles: 334503660
cpu0_DTLB TOTAL     ACCESS:   22247709  HIT:   21285187  MISS:     962522
cpu0_DTLB LOAD      ACCESS:   16512363  HIT:   15771646  MISS:     740717
cpu0_DTLB RFO       ACCESS:    5735346  HIT:    5513541  MISS:     221805
cpu0_DTLB PREFETCH  ACCESS:          0  HIT:          0  MISS:          0
cpu0_DTLB WRITEBACK ACCESS:          0  HIT:          0  MISS:          0
cpu0_DTLB TRANSLATION ACCESS:          0  HIT:          0  MISS:          0
cpu0_DTLB PREFETCH  REQUESTED:          0  ISSUED:          0  USEFUL:          0  USELESS:          0
cpu0_DTLB AVERAGE MISS LATENCY: 15.6537 cycles
cpu0_ITLB TOTAL     ACCESS:    7987841  HIT:    7987824  MISS:         17
cpu0_ITLB LOAD      ACCESS:    7987841  HIT:    7987824  MISS:         17
cpu0_ITLB RFO       ACCESS:          0  HIT:          0  MISS:          0
cpu0_ITLB PREFETCH  ACCESS:          0  HIT:          0  MISS:          0
cpu0_ITLB WRITEBACK ACCESS:          0  HIT:          0  MISS:          0
cpu0_ITLB TRANSLATION ACCESS:          0  HIT:          0  MISS:          0
cpu0_ITLB PREFETCH  REQUESTED:          0  ISSUED:          0  USEFUL:          0  USELESS:          0
cpu0_ITLB AVERAGE MISS LATENCY: 432.118 cycles
cpu0_L1I TOTAL     ACCESS:     823404  HIT:     822631  MISS:        773
cpu0_L1I LOAD      ACCESS:     823404  HIT:     822631  MISS:        773
cpu0_L1I RFO       ACCESS:          0  HIT:          0  MISS:          0
cpu0_L1I PREFETCH  ACCESS:          0  HIT:          0  MISS:          0
cpu0_L1I WRITEBACK ACCESS:          0  HIT:          0  MISS:          0
cpu0_L1I TRANSLATION ACCESS:          0  HIT:          0  MISS:          0
cpu0_L1I PREFETCH  REQUESTED:          0  ISSUED:          0  USEFUL:          0  USELESS:          0
cpu0_L1I AVERAGE MISS LATENCY: 320.95 cycles
cpu0_STLB TOTAL     ACCESS:     962539  HIT:     806979  MISS:     155560
cpu0_STLB LOAD      ACCESS:     740734  HIT:     595999  MISS:     144735
cpu0_STLB RFO       ACCESS:     221805  HIT:     210980  MISS:      10825
cpu0_STLB PREFETCH  ACCESS:          0  HIT:          0  MISS:          0
cpu0_STLB WRITEBACK ACCESS:          0  HIT:          0  MISS:          0
cpu0_STLB TRANSLATION ACCESS:          0  HIT:          0  MISS:          0
cpu0_STLB PREFETCH  REQUESTED:          0  ISSUED:          0  USEFUL:          0  USELESS:          0
cpu0_STLB AVERAGE MISS LATENCY: 40.2808 cycles
cpu0_L1D TOTAL     ACCESS:   19215074  HIT:   13424515  MISS:    5790559
cpu0_L1D LOAD      ACCESS:   12655047  HIT:    7820467  MISS:    4834580
cpu0_L1D RFO       ACCESS:    6408361  HIT:    5458017  MISS:     950344
cpu0_L1D PREFETCH  ACCESS:          0  HIT:          0  MISS:          0
cpu0_L1D WRITEBACK ACCESS:          0  HIT:          0  MISS:          0
cpu0_L1D TRANSLATION ACCESS:     151666  HIT:     146031  MISS:       5635
cpu0_L1D PREFETCH  REQUESTED:          0  ISSUED:          0  USEFUL:          0  USELESS:          0
cpu0_L1D AVERAGE MISS LATENCY: 224.588 cycles
cpu0_L2C TOTAL     ACCESS:    8360867  HIT:    3855159  MISS:    4505708
cpu0_L2C LOAD      ACCESS:    4834935  HIT:    1131352  MISS:    3703583
cpu0_L2C RFO       ACCESS:     950270  HIT:     149035  MISS:     801235
cpu0_L2C PREFETCH  ACCESS:          0  HIT:          0  MISS:          0
cpu0_L2C WRITEBACK ACCESS:    2570027  HIT:    2569954  MISS:         73
cpu0_L2C TRANSLATION ACCESS:       5635  HIT:       4818  MISS:        817
cpu0_L2C PREFETCH  REQUESTED:          0  ISSUED:          0  USEFUL:          0  USELESS:          0
cpu0_L2C AVERAGE MISS LATENCY: 274.334 cycles
LLC TOTAL     ACCESS:    6405734  HIT:    3196549  MISS:    3209185
LLC LOAD      ACCESS:    3703563  HIT:    1419174  MISS:    2284389
LLC RFO       ACCESS:     801226  HIT:     310277  MISS:     490949
LLC PREFETCH  ACCESS:          0  HIT:          0  MISS:          0
LLC WRITEBACK ACCESS:    1900128  HIT:    1466711  MISS:     433417
LLC TRANSLATION ACCESS:        817  HIT:        387  MISS:        430
LLC PREFETCH  REQUESTED:          0  ISSUED:          0  USEFUL:          0  USELESS:          0
LLC AVERAGE MISS LATENCY: 355.355 cycles

DRAM Statistics
 CHANNEL 0
 RQ ROW_BUFFER_HIT:     293518  ROW_BUFFER_MISS:    2480225
 DBUS AVG_CONGESTED_CYCLE:     3.9571
 WQ ROW_BUFFER_HIT:      47288  ROW_BUFFER_MISS:     975927  FULL:     522009


CPU 0 Branch Prediction Accuracy: 93.3985% MPKI: 13.5305 Average ROB Occupancy at Mispredict: 48.1959
Branch type MPKI
BRANCH_DIRECT_JUMP: 0.00081
BRANCH_INDIRECT: 0.00022
BRANCH_CONDITIONAL: 13.5274
BRANCH_DIRECT_CALL: 0.00058
BRANCH_INDIRECT_CALL: 0.00056
BRANCH_RETURN: 0.00094

