
*** ChampSim Multicore Out-of-Order Simulator ***

Warmup Instructions: 10000000
Simulation Instructions: 100000000
Number of CPUs: 1
Off-chip DRAM Size: 4 GiB Channels: 1 Width: 64-bit Data Rate: 3200 MT/s

VirtualMemory physical capacity: 8588881920 num_ppages: 2096895
VirtualMemory page size: 4096 log2_page_size: 12

CPU 0 runs /datasets/cs240c-wi22-a00-public/data/Assignment2/astar_313B.trace.xz
CPU 0 Bimodal branch predictor
Basic BTB sets: 1024 ways: 8 indirect buffer size: 4096 RAS size: 64
5th iteration
No hysteresis, common rrpv
Initialize Hawkeye state
Initialize SRRIP state
Heartbeat CPU 0 instructions: 10000003 cycles: 3955849 heartbeat IPC: 2.5279 cumulative IPC: 2.5279 (Simulation time: 0 hr 0 min 35 sec) 

Warmup complete CPU 0 instructions: 10000003 cycles: 3955849 (Simulation time: 0 hr 0 min 35 sec) 

Heartbeat CPU 0 instructions: 20000004 cycles: 59144858 heartbeat IPC: 0.181196 cumulative IPC: 0.181196 (Simulation time: 0 hr 2 min 5 sec) 
Heartbeat CPU 0 instructions: 30000001 cycles: 117987261 heartbeat IPC: 0.169945 cumulative IPC: 0.17539 (Simulation time: 0 hr 4 min 3 sec) 
Heartbeat CPU 0 instructions: 40000000 cycles: 176398455 heartbeat IPC: 0.1712 cumulative IPC: 0.173971 (Simulation time: 0 hr 5 min 58 sec) 
Heartbeat CPU 0 instructions: 50000001 cycles: 229497715 heartbeat IPC: 0.188327 cumulative IPC: 0.177351 (Simulation time: 0 hr 7 min 25 sec) 
Heartbeat CPU 0 instructions: 60000000 cycles: 286025297 heartbeat IPC: 0.176905 cumulative IPC: 0.177261 (Simulation time: 0 hr 9 min 6 sec) 
Heartbeat CPU 0 instructions: 70000000 cycles: 346127690 heartbeat IPC: 0.166383 cumulative IPC: 0.17535 (Simulation time: 0 hr 10 min 56 sec) 
Heartbeat CPU 0 instructions: 80000000 cycles: 407033983 heartbeat IPC: 0.164187 cumulative IPC: 0.173664 (Simulation time: 0 hr 12 min 35 sec) 
Heartbeat CPU 0 instructions: 90000001 cycles: 464186890 heartbeat IPC: 0.174969 cumulative IPC: 0.173826 (Simulation time: 0 hr 14 min 9 sec) 
Heartbeat CPU 0 instructions: 100000000 cycles: 522071641 heartbeat IPC: 0.172757 cumulative IPC: 0.173706 (Simulation time: 0 hr 15 min 45 sec) 
Heartbeat CPU 0 instructions: 110000000 cycles: 581177156 heartbeat IPC: 0.169189 cumulative IPC: 0.173244 (Simulation time: 0 hr 17 min 30 sec) 
Finished CPU 0 instructions: 100000001 cycles: 577221308 cumulative IPC: 0.173244 (Simulation time: 0 hr 17 min 30 sec) 

ChampSim completed all CPUs

Region of Interest Statistics

CPU 0 cumulative IPC: 0.173244 instructions: 100000001 cycles: 577221308
cpu0_DTLB TOTAL     ACCESS:   34309952  HIT:   30491160  MISS:    3818792
cpu0_DTLB LOAD      ACCESS:   26373237  HIT:   23751017  MISS:    2622220
cpu0_DTLB RFO       ACCESS:    7936715  HIT:    6740143  MISS:    1196572
cpu0_DTLB PREFETCH  ACCESS:          0  HIT:          0  MISS:          0
cpu0_DTLB WRITEBACK ACCESS:          0  HIT:          0  MISS:          0
cpu0_DTLB TRANSLATION ACCESS:          0  HIT:          0  MISS:          0
cpu0_DTLB PREFETCH  REQUESTED:          0  ISSUED:          0  USEFUL:          0  USELESS:          0
cpu0_DTLB AVERAGE MISS LATENCY: 168.736 cycles
cpu0_ITLB TOTAL     ACCESS:   11440320  HIT:   11440320  MISS:          0
cpu0_ITLB LOAD      ACCESS:   11440320  HIT:   11440320  MISS:          0
cpu0_ITLB RFO       ACCESS:          0  HIT:          0  MISS:          0
cpu0_ITLB PREFETCH  ACCESS:          0  HIT:          0  MISS:          0
cpu0_ITLB WRITEBACK ACCESS:          0  HIT:          0  MISS:          0
cpu0_ITLB TRANSLATION ACCESS:          0  HIT:          0  MISS:          0
cpu0_ITLB PREFETCH  REQUESTED:          0  ISSUED:          0  USEFUL:          0  USELESS:          0
cpu0_ITLB AVERAGE MISS LATENCY: -nan cycles
cpu0_L1I TOTAL     ACCESS:        129  HIT:        126  MISS:          3
cpu0_L1I LOAD      ACCESS:        129  HIT:        126  MISS:          3
cpu0_L1I RFO       ACCESS:          0  HIT:          0  MISS:          0
cpu0_L1I PREFETCH  ACCESS:          0  HIT:          0  MISS:          0
cpu0_L1I WRITEBACK ACCESS:          0  HIT:          0  MISS:          0
cpu0_L1I TRANSLATION ACCESS:          0  HIT:          0  MISS:          0
cpu0_L1I PREFETCH  REQUESTED:          0  ISSUED:          0  USEFUL:          0  USELESS:          0
cpu0_L1I AVERAGE MISS LATENCY: 197 cycles
cpu0_STLB TOTAL     ACCESS:    3818792  HIT:    1896195  MISS:    1922597
cpu0_STLB LOAD      ACCESS:    2622220  HIT:    1784579  MISS:     837641
cpu0_STLB RFO       ACCESS:    1196572  HIT:     111616  MISS:    1084956
cpu0_STLB PREFETCH  ACCESS:          0  HIT:          0  MISS:          0
cpu0_STLB WRITEBACK ACCESS:          0  HIT:          0  MISS:          0
cpu0_STLB TRANSLATION ACCESS:          0  HIT:          0  MISS:          0
cpu0_STLB PREFETCH  REQUESTED:          0  ISSUED:          0  USEFUL:          0  USELESS:          0
cpu0_STLB AVERAGE MISS LATENCY: 317.098 cycles
cpu0_L1D TOTAL     ACCESS:   35966035  HIT:   30113294  MISS:    5852741
cpu0_L1D LOAD      ACCESS:   24420565  HIT:   20489604  MISS:    3930961
cpu0_L1D RFO       ACCESS:   10121149  HIT:    8210490  MISS:    1910659
cpu0_L1D PREFETCH  ACCESS:          0  HIT:          0  MISS:          0
cpu0_L1D WRITEBACK ACCESS:          0  HIT:          0  MISS:          0
cpu0_L1D TRANSLATION ACCESS:    1424321  HIT:    1413200  MISS:      11121
cpu0_L1D PREFETCH  REQUESTED:          0  ISSUED:          0  USEFUL:          0  USELESS:          0
cpu0_L1D AVERAGE MISS LATENCY: 385.982 cycles
cpu0_L2C TOTAL     ACCESS:    8697455  HIT:    4509683  MISS:    4187772
cpu0_L2C LOAD      ACCESS:    3930954  HIT:    1549466  MISS:    2381488
cpu0_L2C RFO       ACCESS:    1910659  HIT:     106277  MISS:    1804382
cpu0_L2C PREFETCH  ACCESS:          0  HIT:          0  MISS:          0
cpu0_L2C WRITEBACK ACCESS:    2844721  HIT:    2844549  MISS:        172
cpu0_L2C TRANSLATION ACCESS:      11121  HIT:       9391  MISS:       1730
cpu0_L2C PREFETCH  REQUESTED:          0  ISSUED:          0  USEFUL:          0  USELESS:          0
cpu0_L2C AVERAGE MISS LATENCY: 524.032 cycles
LLC TOTAL     ACCESS:    6918147  HIT:    2472120  MISS:    4446027
LLC LOAD      ACCESS:    2381488  HIT:     499398  MISS:    1882090
LLC RFO       ACCESS:    1804380  HIT:     654699  MISS:    1149681
LLC PREFETCH  ACCESS:          0  HIT:          0  MISS:          0
LLC WRITEBACK ACCESS:    2730549  HIT:    1316494  MISS:    1414055
LLC TRANSLATION ACCESS:       1730  HIT:       1529  MISS:        201
LLC PREFETCH  REQUESTED:          0  ISSUED:          0  USEFUL:          0  USELESS:          0
LLC AVERAGE MISS LATENCY: 473.811 cycles

DRAM Statistics
 CHANNEL 0
 RQ ROW_BUFFER_HIT:      23234  ROW_BUFFER_MISS:    3008193
 DBUS AVG_CONGESTED_CYCLE:    3.99887
 WQ ROW_BUFFER_HIT:     218292  ROW_BUFFER_MISS:    1441024  FULL:      47853


CPU 0 Branch Prediction Accuracy: 88.672% MPKI: 23.9003 Average ROB Occupancy at Mispredict: 22.8505
Branch type MPKI
BRANCH_DIRECT_JUMP: 1e-05
BRANCH_INDIRECT: 0
BRANCH_CONDITIONAL: 23.8999
BRANCH_DIRECT_CALL: 0
BRANCH_INDIRECT_CALL: 0.00038
BRANCH_RETURN: 0

