
*** ChampSim Multicore Out-of-Order Simulator ***

Warmup Instructions: 10000000
Simulation Instructions: 100000000
Number of CPUs: 1
Off-chip DRAM Size: 4 GiB Channels: 1 Width: 64-bit Data Rate: 3200 MT/s

VirtualMemory physical capacity: 8588881920 num_ppages: 2096895
VirtualMemory page size: 4096 log2_page_size: 12

CPU 0 runs /datasets/cs240c-wi22-a00-public/data/Assignment2/hmmer_7B.trace.xz
CPU 0 Bimodal branch predictor
Basic BTB sets: 1024 ways: 8 indirect buffer size: 4096 RAS size: 64
5th iteration
No hysteresis, common rrpv
Initialize Hawkeye state
Initialize SRRIP state
Heartbeat CPU 0 instructions: 10000004 cycles: 3986065 heartbeat IPC: 2.50874 cumulative IPC: 2.50874 (Simulation time: 0 hr 0 min 36 sec) 

Warmup complete CPU 0 instructions: 10000004 cycles: 3986065 (Simulation time: 0 hr 0 min 36 sec) 

Heartbeat CPU 0 instructions: 20000004 cycles: 9248136 heartbeat IPC: 1.90039 cumulative IPC: 1.90039 (Simulation time: 0 hr 1 min 26 sec) 
Heartbeat CPU 0 instructions: 30000001 cycles: 13978360 heartbeat IPC: 2.11406 cumulative IPC: 2.00154 (Simulation time: 0 hr 2 min 15 sec) 
Heartbeat CPU 0 instructions: 40000001 cycles: 18493042 heartbeat IPC: 2.215 cumulative IPC: 2.06797 (Simulation time: 0 hr 3 min 4 sec) 
Heartbeat CPU 0 instructions: 50000000 cycles: 23657488 heartbeat IPC: 1.93632 cumulative IPC: 2.03341 (Simulation time: 0 hr 3 min 54 sec) 
Heartbeat CPU 0 instructions: 60000000 cycles: 27983957 heartbeat IPC: 2.31135 cumulative IPC: 2.08352 (Simulation time: 0 hr 4 min 41 sec) 
Heartbeat CPU 0 instructions: 70000003 cycles: 32306060 heartbeat IPC: 2.31369 cumulative IPC: 2.11864 (Simulation time: 0 hr 5 min 28 sec) 
Heartbeat CPU 0 instructions: 80000001 cycles: 36615777 heartbeat IPC: 2.32034 cumulative IPC: 2.14528 (Simulation time: 0 hr 6 min 16 sec) 
Heartbeat CPU 0 instructions: 90000004 cycles: 40935222 heartbeat IPC: 2.31511 cumulative IPC: 2.16514 (Simulation time: 0 hr 7 min 2 sec) 
Heartbeat CPU 0 instructions: 100000002 cycles: 45254286 heartbeat IPC: 2.31532 cumulative IPC: 2.18085 (Simulation time: 0 hr 7 min 49 sec) 
Heartbeat CPU 0 instructions: 110000001 cycles: 49581936 heartbeat IPC: 2.31072 cumulative IPC: 2.19318 (Simulation time: 0 hr 8 min 36 sec) 
Finished CPU 0 instructions: 100000002 cycles: 45595872 cumulative IPC: 2.19318 (Simulation time: 0 hr 8 min 36 sec) 

ChampSim completed all CPUs

Region of Interest Statistics

CPU 0 cumulative IPC: 2.19318 instructions: 100000002 cycles: 45595872
cpu0_DTLB TOTAL     ACCESS:   40544567  HIT:   40530411  MISS:      14156
cpu0_DTLB LOAD      ACCESS:   32389430  HIT:   32381713  MISS:       7717
cpu0_DTLB RFO       ACCESS:    8155137  HIT:    8148698  MISS:       6439
cpu0_DTLB PREFETCH  ACCESS:          0  HIT:          0  MISS:          0
cpu0_DTLB WRITEBACK ACCESS:          0  HIT:          0  MISS:          0
cpu0_DTLB TRANSLATION ACCESS:          0  HIT:          0  MISS:          0
cpu0_DTLB PREFETCH  REQUESTED:          0  ISSUED:          0  USEFUL:          0  USELESS:          0
cpu0_DTLB AVERAGE MISS LATENCY: 14.2912 cycles
cpu0_ITLB TOTAL     ACCESS:     800859  HIT:     800787  MISS:         72
cpu0_ITLB LOAD      ACCESS:     800859  HIT:     800787  MISS:         72
cpu0_ITLB RFO       ACCESS:          0  HIT:          0  MISS:          0
cpu0_ITLB PREFETCH  ACCESS:          0  HIT:          0  MISS:          0
cpu0_ITLB WRITEBACK ACCESS:          0  HIT:          0  MISS:          0
cpu0_ITLB TRANSLATION ACCESS:          0  HIT:          0  MISS:          0
cpu0_ITLB PREFETCH  REQUESTED:          0  ISSUED:          0  USEFUL:          0  USELESS:          0
cpu0_ITLB AVERAGE MISS LATENCY: 21 cycles
cpu0_L1I TOTAL     ACCESS:      62171  HIT:      62066  MISS:        105
cpu0_L1I LOAD      ACCESS:      62171  HIT:      62066  MISS:        105
cpu0_L1I RFO       ACCESS:          0  HIT:          0  MISS:          0
cpu0_L1I PREFETCH  ACCESS:          0  HIT:          0  MISS:          0
cpu0_L1I WRITEBACK ACCESS:          0  HIT:          0  MISS:          0
cpu0_L1I TRANSLATION ACCESS:          0  HIT:          0  MISS:          0
cpu0_L1I PREFETCH  REQUESTED:          0  ISSUED:          0  USEFUL:          0  USELESS:          0
cpu0_L1I AVERAGE MISS LATENCY: 102.457 cycles
cpu0_STLB TOTAL     ACCESS:      14228  HIT:      13773  MISS:        455
cpu0_STLB LOAD      ACCESS:       7789  HIT:       7781  MISS:          8
cpu0_STLB RFO       ACCESS:       6439  HIT:       5992  MISS:        447
cpu0_STLB PREFETCH  ACCESS:          0  HIT:          0  MISS:          0
cpu0_STLB WRITEBACK ACCESS:          0  HIT:          0  MISS:          0
cpu0_STLB TRANSLATION ACCESS:          0  HIT:          0  MISS:          0
cpu0_STLB PREFETCH  REQUESTED:          0  ISSUED:          0  USEFUL:          0  USELESS:          0
cpu0_STLB AVERAGE MISS LATENCY: 166.312 cycles
cpu0_L1D TOTAL     ACCESS:   33516368  HIT:   33046252  MISS:     470116
cpu0_L1D LOAD      ACCESS:   28672745  HIT:   28511360  MISS:     161385
cpu0_L1D RFO       ACCESS:    4843169  HIT:    4534461  MISS:     308708
cpu0_L1D PREFETCH  ACCESS:          0  HIT:          0  MISS:          0
cpu0_L1D WRITEBACK ACCESS:          0  HIT:          0  MISS:          0
cpu0_L1D TRANSLATION ACCESS:        454  HIT:        431  MISS:         23
cpu0_L1D PREFETCH  REQUESTED:          0  ISSUED:          0  USEFUL:          0  USELESS:          0
cpu0_L1D AVERAGE MISS LATENCY: 234.935 cycles
cpu0_L2C TOTAL     ACCESS:     777248  HIT:     472325  MISS:     304923
cpu0_L2C LOAD      ACCESS:     161490  HIT:     149256  MISS:      12234
cpu0_L2C RFO       ACCESS:     308708  HIT:      16074  MISS:     292634
cpu0_L2C PREFETCH  ACCESS:          0  HIT:          0  MISS:          0
cpu0_L2C WRITEBACK ACCESS:     307027  HIT:     306980  MISS:         47
cpu0_L2C TRANSLATION ACCESS:         23  HIT:         15  MISS:          8
cpu0_L2C PREFETCH  REQUESTED:          0  ISSUED:          0  USEFUL:          0  USELESS:          0
cpu0_L2C AVERAGE MISS LATENCY: 345.27 cycles
LLC TOTAL     ACCESS:     596420  HIT:     451945  MISS:     144475
LLC LOAD      ACCESS:      12233  HIT:      10974  MISS:       1259
LLC RFO       ACCESS:     292633  HIT:     212871  MISS:      79762
LLC PREFETCH  ACCESS:          0  HIT:          0  MISS:          0
LLC WRITEBACK ACCESS:     291546  HIT:     228093  MISS:      63453
LLC TRANSLATION ACCESS:          8  HIT:          7  MISS:          1
LLC PREFETCH  REQUESTED:          0  ISSUED:          0  USEFUL:          0  USELESS:          0
LLC AVERAGE MISS LATENCY: 684.278 cycles

DRAM Statistics
 CHANNEL 0
 RQ ROW_BUFFER_HIT:       1036  ROW_BUFFER_MISS:      79984
 DBUS AVG_CONGESTED_CYCLE:    3.99373
 WQ ROW_BUFFER_HIT:       3915  ROW_BUFFER_MISS:      73039  FULL:      13822


CPU 0 Branch Prediction Accuracy: 98.9368% MPKI: 0.40856 Average ROB Occupancy at Mispredict: 252.372
Branch type MPKI
BRANCH_DIRECT_JUMP: 0.00016
BRANCH_INDIRECT: 0.00157
BRANCH_CONDITIONAL: 0.40659
BRANCH_DIRECT_CALL: 9e-05
BRANCH_INDIRECT_CALL: 3e-05
BRANCH_RETURN: 0.00012

