
*** ChampSim Multicore Out-of-Order Simulator ***

Warmup Instructions: 10000000
Simulation Instructions: 100000000
Number of CPUs: 1
Off-chip DRAM Size: 4 GiB Channels: 1 Width: 64-bit Data Rate: 3200 MT/s

VirtualMemory physical capacity: 8588881920 num_ppages: 2096895
VirtualMemory page size: 4096 log2_page_size: 12

CPU 0 runs /datasets/cs240c-wi22-a00-public/data/Assignment2/lbm_1004B.trace.xz
CPU 0 Bimodal branch predictor
Basic BTB sets: 1024 ways: 8 indirect buffer size: 4096 RAS size: 64
5th iteration
No hysteresis, common rrpv
Initialize Hawkeye state
Initialize SRRIP state
Heartbeat CPU 0 instructions: 10000003 cycles: 2504745 heartbeat IPC: 3.99242 cumulative IPC: 3.99242 (Simulation time: 0 hr 0 min 17 sec) 

Warmup complete CPU 0 instructions: 10000003 cycles: 2504745 (Simulation time: 0 hr 0 min 17 sec) 

Heartbeat CPU 0 instructions: 20000004 cycles: 35772923 heartbeat IPC: 0.300588 cumulative IPC: 0.300588 (Simulation time: 0 hr 1 min 54 sec) 
Heartbeat CPU 0 instructions: 30000004 cycles: 69282668 heartbeat IPC: 0.298421 cumulative IPC: 0.2995 (Simulation time: 0 hr 3 min 27 sec) 
Heartbeat CPU 0 instructions: 40000003 cycles: 101918079 heartbeat IPC: 0.306416 cumulative IPC: 0.30177 (Simulation time: 0 hr 4 min 59 sec) 
Heartbeat CPU 0 instructions: 50000004 cycles: 134276457 heartbeat IPC: 0.309039 cumulative IPC: 0.303555 (Simulation time: 0 hr 6 min 30 sec) 
Heartbeat CPU 0 instructions: 60000004 cycles: 166548325 heartbeat IPC: 0.309867 cumulative IPC: 0.304797 (Simulation time: 0 hr 8 min 0 sec) 
Heartbeat CPU 0 instructions: 70000001 cycles: 198438082 heartbeat IPC: 0.31358 cumulative IPC: 0.306227 (Simulation time: 0 hr 9 min 29 sec) 
Heartbeat CPU 0 instructions: 80000000 cycles: 253992041 heartbeat IPC: 0.180005 cumulative IPC: 0.278344 (Simulation time: 0 hr 12 min 35 sec) 
Heartbeat CPU 0 instructions: 90000001 cycles: 287870465 heartbeat IPC: 0.295173 cumulative IPC: 0.280342 (Simulation time: 0 hr 14 min 8 sec) 
Heartbeat CPU 0 instructions: 100000000 cycles: 319402124 heartbeat IPC: 0.317142 cumulative IPC: 0.284004 (Simulation time: 0 hr 15 min 36 sec) 
Heartbeat CPU 0 instructions: 110000003 cycles: 352510155 heartbeat IPC: 0.302042 cumulative IPC: 0.28571 (Simulation time: 0 hr 17 min 9 sec) 
Finished CPU 0 instructions: 100000000 cycles: 350005410 cumulative IPC: 0.28571 (Simulation time: 0 hr 17 min 9 sec) 

ChampSim completed all CPUs

Region of Interest Statistics

CPU 0 cumulative IPC: 0.28571 instructions: 100000000 cycles: 350005410
cpu0_DTLB TOTAL     ACCESS:   13660543  HIT:   13610093  MISS:      50450
cpu0_DTLB LOAD      ACCESS:    6950296  HIT:    6937677  MISS:      12619
cpu0_DTLB RFO       ACCESS:    6710247  HIT:    6672416  MISS:      37831
cpu0_DTLB PREFETCH  ACCESS:          0  HIT:          0  MISS:          0
cpu0_DTLB WRITEBACK ACCESS:          0  HIT:          0  MISS:          0
cpu0_DTLB TRANSLATION ACCESS:          0  HIT:          0  MISS:          0
cpu0_DTLB PREFETCH  REQUESTED:          0  ISSUED:          0  USEFUL:          0  USELESS:          0
cpu0_DTLB AVERAGE MISS LATENCY: 354.747 cycles
cpu0_ITLB TOTAL     ACCESS:     118666  HIT:     118665  MISS:          1
cpu0_ITLB LOAD      ACCESS:     118666  HIT:     118665  MISS:          1
cpu0_ITLB RFO       ACCESS:          0  HIT:          0  MISS:          0
cpu0_ITLB PREFETCH  ACCESS:          0  HIT:          0  MISS:          0
cpu0_ITLB WRITEBACK ACCESS:          0  HIT:          0  MISS:          0
cpu0_ITLB TRANSLATION ACCESS:          0  HIT:          0  MISS:          0
cpu0_ITLB PREFETCH  REQUESTED:          0  ISSUED:          0  USEFUL:          0  USELESS:          0
cpu0_ITLB AVERAGE MISS LATENCY: 2039 cycles
cpu0_L1I TOTAL     ACCESS:         12  HIT:          6  MISS:          6
cpu0_L1I LOAD      ACCESS:         12  HIT:          6  MISS:          6
cpu0_L1I RFO       ACCESS:          0  HIT:          0  MISS:          0
cpu0_L1I PREFETCH  ACCESS:          0  HIT:          0  MISS:          0
cpu0_L1I WRITEBACK ACCESS:          0  HIT:          0  MISS:          0
cpu0_L1I TRANSLATION ACCESS:          0  HIT:          0  MISS:          0
cpu0_L1I PREFETCH  REQUESTED:          0  ISSUED:          0  USEFUL:          0  USELESS:          0
cpu0_L1I AVERAGE MISS LATENCY: 389.333 cycles
cpu0_STLB TOTAL     ACCESS:      50451  HIT:          5  MISS:      50446
cpu0_STLB LOAD      ACCESS:      12620  HIT:          0  MISS:      12620
cpu0_STLB RFO       ACCESS:      37831  HIT:          5  MISS:      37826
cpu0_STLB PREFETCH  ACCESS:          0  HIT:          0  MISS:          0
cpu0_STLB WRITEBACK ACCESS:          0  HIT:          0  MISS:          0
cpu0_STLB TRANSLATION ACCESS:          0  HIT:          0  MISS:          0
cpu0_STLB PREFETCH  REQUESTED:          0  ISSUED:          0  USEFUL:          0  USELESS:          0
cpu0_STLB AVERAGE MISS LATENCY: 345.815 cycles
cpu0_L1D TOTAL     ACCESS:   15132488  HIT:    9811963  MISS:    5320525
cpu0_L1D LOAD      ACCESS:    4357895  HIT:    3551532  MISS:     806363
cpu0_L1D RFO       ACCESS:   10724161  HIT:    6210048  MISS:    4514113
cpu0_L1D PREFETCH  ACCESS:          0  HIT:          0  MISS:          0
cpu0_L1D WRITEBACK ACCESS:          0  HIT:          0  MISS:          0
cpu0_L1D TRANSLATION ACCESS:      50432  HIT:      50383  MISS:         49
cpu0_L1D PREFETCH  REQUESTED:          0  ISSUED:          0  USEFUL:          0  USELESS:          0
cpu0_L1D AVERAGE MISS LATENCY: 475.301 cycles
cpu0_L2C TOTAL     ACCESS:    9834646  HIT:    6608183  MISS:    3226463
cpu0_L2C LOAD      ACCESS:     806369  HIT:        193  MISS:     806176
cpu0_L2C RFO       ACCESS:    4514113  HIT:    2093968  MISS:    2420145
cpu0_L2C PREFETCH  ACCESS:          0  HIT:          0  MISS:          0
cpu0_L2C WRITEBACK ACCESS:    4514115  HIT:    4514022  MISS:         93
cpu0_L2C TRANSLATION ACCESS:         49  HIT:          0  MISS:         49
cpu0_L2C PREFETCH  REQUESTED:          0  ISSUED:          0  USEFUL:          0  USELESS:          0
cpu0_L2C AVERAGE MISS LATENCY: 764.275 cycles
LLC TOTAL     ACCESS:    5646845  HIT:    1432534  MISS:    4214311
LLC LOAD      ACCESS:     806176  HIT:         47  MISS:     806129
LLC RFO       ACCESS:    2420145  HIT:     437659  MISS:    1982486
LLC PREFETCH  ACCESS:          0  HIT:          0  MISS:          0
LLC WRITEBACK ACCESS:    2420475  HIT:     994818  MISS:    1425657
LLC TRANSLATION ACCESS:         49  HIT:         10  MISS:         39
LLC PREFETCH  REQUESTED:          0  ISSUED:          0  USEFUL:          0  USELESS:          0
LLC AVERAGE MISS LATENCY: 569.049 cycles

DRAM Statistics
 CHANNEL 0
 RQ ROW_BUFFER_HIT:      47292  ROW_BUFFER_MISS:    2741059
 DBUS AVG_CONGESTED_CYCLE:    3.99596
 WQ ROW_BUFFER_HIT:      24206  ROW_BUFFER_MISS:    2081430  FULL:         51


CPU 0 Branch Prediction Accuracy: 99.2476% MPKI: 0.09355 Average ROB Occupancy at Mispredict: 169.702
Branch type MPKI
BRANCH_DIRECT_JUMP: 2e-05
BRANCH_INDIRECT: 0
BRANCH_CONDITIONAL: 0.09349
BRANCH_DIRECT_CALL: 2e-05
BRANCH_INDIRECT_CALL: 0
BRANCH_RETURN: 2e-05

