
*** ChampSim Multicore Out-of-Order Simulator ***

Warmup Instructions: 10000000
Simulation Instructions: 100000000
Number of CPUs: 1
Off-chip DRAM Size: 4 GiB Channels: 1 Width: 64-bit Data Rate: 3200 MT/s

VirtualMemory physical capacity: 8588881920 num_ppages: 2096895
VirtualMemory page size: 4096 log2_page_size: 12

CPU 0 runs /datasets/cs240c-wi22-a00-public/data/Assignment2/lbm_564B.trace.xz
CPU 0 Bimodal branch predictor
Basic BTB sets: 1024 ways: 8 indirect buffer size: 4096 RAS size: 64
5th iteration
No hysteresis, common rrpv
Initialize Hawkeye state
Initialize SRRIP state
Heartbeat CPU 0 instructions: 10000000 cycles: 2507076 heartbeat IPC: 3.98871 cumulative IPC: 3.98871 (Simulation time: 0 hr 0 min 17 sec) 

Warmup complete CPU 0 instructions: 10000004 cycles: 2507077 (Simulation time: 0 hr 0 min 17 sec) 

Heartbeat CPU 0 instructions: 20000004 cycles: 36961092 heartbeat IPC: 0.290242 cumulative IPC: 0.290242 (Simulation time: 0 hr 1 min 54 sec) 
Heartbeat CPU 0 instructions: 30000000 cycles: 94842810 heartbeat IPC: 0.172766 cumulative IPC: 0.216601 (Simulation time: 0 hr 5 min 7 sec) 
Heartbeat CPU 0 instructions: 40000000 cycles: 127750991 heartbeat IPC: 0.303876 cumulative IPC: 0.239533 (Simulation time: 0 hr 6 min 39 sec) 
Heartbeat CPU 0 instructions: 50000000 cycles: 159509786 heartbeat IPC: 0.314873 cumulative IPC: 0.254773 (Simulation time: 0 hr 8 min 7 sec) 
Heartbeat CPU 0 instructions: 60000001 cycles: 191837626 heartbeat IPC: 0.309331 cumulative IPC: 0.264088 (Simulation time: 0 hr 9 min 38 sec) 
Heartbeat CPU 0 instructions: 70000002 cycles: 225524312 heartbeat IPC: 0.296853 cumulative IPC: 0.269037 (Simulation time: 0 hr 11 min 13 sec) 
Heartbeat CPU 0 instructions: 80000000 cycles: 260704873 heartbeat IPC: 0.284248 cumulative IPC: 0.27111 (Simulation time: 0 hr 12 min 54 sec) 
Heartbeat CPU 0 instructions: 90000003 cycles: 295530139 heartbeat IPC: 0.287148 cumulative IPC: 0.273016 (Simulation time: 0 hr 14 min 36 sec) 
Heartbeat CPU 0 instructions: 100000004 cycles: 329505847 heartbeat IPC: 0.294328 cumulative IPC: 0.27523 (Simulation time: 0 hr 16 min 15 sec) 
Heartbeat CPU 0 instructions: 110000003 cycles: 366320380 heartbeat IPC: 0.271632 cumulative IPC: 0.274866 (Simulation time: 0 hr 18 min 5 sec) 
Finished CPU 0 instructions: 100000004 cycles: 363813304 cumulative IPC: 0.274866 (Simulation time: 0 hr 18 min 5 sec) 

ChampSim completed all CPUs

Region of Interest Statistics

CPU 0 cumulative IPC: 0.274866 instructions: 100000004 cycles: 363813304
cpu0_DTLB TOTAL     ACCESS:   13900330  HIT:   13847556  MISS:      52774
cpu0_DTLB LOAD      ACCESS:    6990638  HIT:    6977439  MISS:      13199
cpu0_DTLB RFO       ACCESS:    6909692  HIT:    6870117  MISS:      39575
cpu0_DTLB PREFETCH  ACCESS:          0  HIT:          0  MISS:          0
cpu0_DTLB WRITEBACK ACCESS:          0  HIT:          0  MISS:          0
cpu0_DTLB TRANSLATION ACCESS:          0  HIT:          0  MISS:          0
cpu0_DTLB PREFETCH  REQUESTED:          0  ISSUED:          0  USEFUL:          0  USELESS:          0
cpu0_DTLB AVERAGE MISS LATENCY: 457.538 cycles
cpu0_ITLB TOTAL     ACCESS:     150225  HIT:     150224  MISS:          1
cpu0_ITLB LOAD      ACCESS:     150225  HIT:     150224  MISS:          1
cpu0_ITLB RFO       ACCESS:          0  HIT:          0  MISS:          0
cpu0_ITLB PREFETCH  ACCESS:          0  HIT:          0  MISS:          0
cpu0_ITLB WRITEBACK ACCESS:          0  HIT:          0  MISS:          0
cpu0_ITLB TRANSLATION ACCESS:          0  HIT:          0  MISS:          0
cpu0_ITLB PREFETCH  REQUESTED:          0  ISSUED:          0  USEFUL:          0  USELESS:          0
cpu0_ITLB AVERAGE MISS LATENCY: 727 cycles
cpu0_L1I TOTAL     ACCESS:         12  HIT:          6  MISS:          6
cpu0_L1I LOAD      ACCESS:         12  HIT:          6  MISS:          6
cpu0_L1I RFO       ACCESS:          0  HIT:          0  MISS:          0
cpu0_L1I PREFETCH  ACCESS:          0  HIT:          0  MISS:          0
cpu0_L1I WRITEBACK ACCESS:          0  HIT:          0  MISS:          0
cpu0_L1I TRANSLATION ACCESS:          0  HIT:          0  MISS:          0
cpu0_L1I PREFETCH  REQUESTED:          0  ISSUED:          0  USEFUL:          0  USELESS:          0
cpu0_L1I AVERAGE MISS LATENCY: 463 cycles
cpu0_STLB TOTAL     ACCESS:      52775  HIT:          5  MISS:      52770
cpu0_STLB LOAD      ACCESS:      13200  HIT:          0  MISS:      13200
cpu0_STLB RFO       ACCESS:      39575  HIT:          5  MISS:      39570
cpu0_STLB PREFETCH  ACCESS:          0  HIT:          0  MISS:          0
cpu0_STLB WRITEBACK ACCESS:          0  HIT:          0  MISS:          0
cpu0_STLB TRANSLATION ACCESS:          0  HIT:          0  MISS:          0
cpu0_STLB PREFETCH  REQUESTED:          0  ISSUED:          0  USEFUL:          0  USELESS:          0
cpu0_STLB AVERAGE MISS LATENCY: 448.585 cycles
cpu0_L1D TOTAL     ACCESS:   15375300  HIT:    9809105  MISS:    5566195
cpu0_L1D LOAD      ACCESS:    4366409  HIT:    3522824  MISS:     843585
cpu0_L1D RFO       ACCESS:   10956135  HIT:    6233576  MISS:    4722559
cpu0_L1D PREFETCH  ACCESS:          0  HIT:          0  MISS:          0
cpu0_L1D WRITEBACK ACCESS:          0  HIT:          0  MISS:          0
cpu0_L1D TRANSLATION ACCESS:      52756  HIT:      52705  MISS:         51
cpu0_L1D PREFETCH  REQUESTED:          0  ISSUED:          0  USEFUL:          0  USELESS:          0
cpu0_L1D AVERAGE MISS LATENCY: 500.486 cycles
cpu0_L2C TOTAL     ACCESS:   10288757  HIT:    6913181  MISS:    3375576
cpu0_L2C LOAD      ACCESS:     843591  HIT:        217  MISS:     843374
cpu0_L2C RFO       ACCESS:    4722558  HIT:    2190534  MISS:    2532024
cpu0_L2C PREFETCH  ACCESS:          0  HIT:          0  MISS:          0
cpu0_L2C WRITEBACK ACCESS:    4722557  HIT:    4722430  MISS:        127
cpu0_L2C TRANSLATION ACCESS:         51  HIT:          0  MISS:         51
cpu0_L2C PREFETCH  REQUESTED:          0  ISSUED:          0  USEFUL:          0  USELESS:          0
cpu0_L2C AVERAGE MISS LATENCY: 805.85 cycles
LLC TOTAL     ACCESS:    5907516  HIT:    1485564  MISS:    4421952
LLC LOAD      ACCESS:     843374  HIT:         78  MISS:     843296
LLC RFO       ACCESS:    2532022  HIT:     458957  MISS:    2073065
LLC PREFETCH  ACCESS:          0  HIT:          0  MISS:          0
LLC WRITEBACK ACCESS:    2532069  HIT:    1026515  MISS:    1505554
LLC TRANSLATION ACCESS:         51  HIT:         14  MISS:         37
LLC PREFETCH  REQUESTED:          0  ISSUED:          0  USEFUL:          0  USELESS:          0
LLC AVERAGE MISS LATENCY: 599.13 cycles

DRAM Statistics
 CHANNEL 0
 RQ ROW_BUFFER_HIT:      56520  ROW_BUFFER_MISS:    2859529
 DBUS AVG_CONGESTED_CYCLE:    3.99601
 WQ ROW_BUFFER_HIT:      26138  ROW_BUFFER_MISS:    2170040  FULL:          0


CPU 0 Branch Prediction Accuracy: 99.0902% MPKI: 0.11542 Average ROB Occupancy at Mispredict: 182.068
Branch type MPKI
BRANCH_DIRECT_JUMP: 2e-05
BRANCH_INDIRECT: 0
BRANCH_CONDITIONAL: 0.11536
BRANCH_DIRECT_CALL: 2e-05
BRANCH_INDIRECT_CALL: 0
BRANCH_RETURN: 2e-05

