
*** ChampSim Multicore Out-of-Order Simulator ***

Warmup Instructions: 10000000
Simulation Instructions: 100000000
Number of CPUs: 1
Off-chip DRAM Size: 4 GiB Channels: 1 Width: 64-bit Data Rate: 3200 MT/s

VirtualMemory physical capacity: 8588881920 num_ppages: 2096895
VirtualMemory page size: 4096 log2_page_size: 12

CPU 0 runs /datasets/cs240c-wi22-a00-public/data/Assignment2/libquantum_964B.trace.xz
CPU 0 Bimodal branch predictor
Basic BTB sets: 1024 ways: 8 indirect buffer size: 4096 RAS size: 64
5th iteration
No hysteresis, common rrpv
Initialize Hawkeye state
Initialize SRRIP state
Heartbeat CPU 0 instructions: 10000001 cycles: 2500058 heartbeat IPC: 3.99991 cumulative IPC: 3.99991 (Simulation time: 0 hr 0 min 15 sec) 

Warmup complete CPU 0 instructions: 10000001 cycles: 2500058 (Simulation time: 0 hr 0 min 15 sec) 

Heartbeat CPU 0 instructions: 20000002 cycles: 18186097 heartbeat IPC: 0.63751 cumulative IPC: 0.63751 (Simulation time: 0 hr 0 min 51 sec) 
Heartbeat CPU 0 instructions: 30000004 cycles: 42182854 heartbeat IPC: 0.416723 cumulative IPC: 0.503997 (Simulation time: 0 hr 2 min 10 sec) 
Heartbeat CPU 0 instructions: 40000001 cycles: 64457005 heartbeat IPC: 0.448951 cumulative IPC: 0.484207 (Simulation time: 0 hr 3 min 39 sec) 
Heartbeat CPU 0 instructions: 50000003 cycles: 69473050 heartbeat IPC: 1.9936 cumulative IPC: 0.597256 (Simulation time: 0 hr 4 min 9 sec) 
Heartbeat CPU 0 instructions: 60000004 cycles: 79694901 heartbeat IPC: 0.978297 cumulative IPC: 0.647712 (Simulation time: 0 hr 4 min 41 sec) 
Heartbeat CPU 0 instructions: 70000003 cycles: 95676307 heartbeat IPC: 0.625727 cumulative IPC: 0.643941 (Simulation time: 0 hr 5 min 18 sec) 
Heartbeat CPU 0 instructions: 80000002 cycles: 122482853 heartbeat IPC: 0.373043 cumulative IPC: 0.583417 (Simulation time: 0 hr 6 min 51 sec) 
Heartbeat CPU 0 instructions: 90000001 cycles: 142202844 heartbeat IPC: 0.5071 cumulative IPC: 0.572644 (Simulation time: 0 hr 8 min 9 sec) 
Heartbeat CPU 0 instructions: 100000001 cycles: 147227337 heartbeat IPC: 1.99025 cumulative IPC: 0.621859 (Simulation time: 0 hr 8 min 38 sec) 
Heartbeat CPU 0 instructions: 110000003 cycles: 170861469 heartbeat IPC: 0.423117 cumulative IPC: 0.59396 (Simulation time: 0 hr 10 min 14 sec) 
Finished CPU 0 instructions: 100000002 cycles: 168361411 cumulative IPC: 0.59396 (Simulation time: 0 hr 10 min 14 sec) 

ChampSim completed all CPUs

Region of Interest Statistics

CPU 0 cumulative IPC: 0.59396 instructions: 100000002 cycles: 168361411
cpu0_DTLB TOTAL     ACCESS:    9113563  HIT:    9060565  MISS:      52998
cpu0_DTLB LOAD      ACCESS:    6234308  HIT:    6203118  MISS:      31190
cpu0_DTLB RFO       ACCESS:    2879255  HIT:    2857447  MISS:      21808
cpu0_DTLB PREFETCH  ACCESS:          0  HIT:          0  MISS:          0
cpu0_DTLB WRITEBACK ACCESS:          0  HIT:          0  MISS:          0
cpu0_DTLB TRANSLATION ACCESS:          0  HIT:          0  MISS:          0
cpu0_DTLB PREFETCH  REQUESTED:          0  ISSUED:          0  USEFUL:          0  USELESS:          0
cpu0_DTLB AVERAGE MISS LATENCY: 38.8517 cycles
cpu0_ITLB TOTAL     ACCESS:    1926805  HIT:    1926804  MISS:          1
cpu0_ITLB LOAD      ACCESS:    1926805  HIT:    1926804  MISS:          1
cpu0_ITLB RFO       ACCESS:          0  HIT:          0  MISS:          0
cpu0_ITLB PREFETCH  ACCESS:          0  HIT:          0  MISS:          0
cpu0_ITLB WRITEBACK ACCESS:          0  HIT:          0  MISS:          0
cpu0_ITLB TRANSLATION ACCESS:          0  HIT:          0  MISS:          0
cpu0_ITLB PREFETCH  REQUESTED:          0  ISSUED:          0  USEFUL:          0  USELESS:          0
cpu0_ITLB AVERAGE MISS LATENCY: 217 cycles
cpu0_L1I TOTAL     ACCESS:         11  HIT:          7  MISS:          4
cpu0_L1I LOAD      ACCESS:         11  HIT:          7  MISS:          4
cpu0_L1I RFO       ACCESS:          0  HIT:          0  MISS:          0
cpu0_L1I PREFETCH  ACCESS:          0  HIT:          0  MISS:          0
cpu0_L1I WRITEBACK ACCESS:          0  HIT:          0  MISS:          0
cpu0_L1I TRANSLATION ACCESS:          0  HIT:          0  MISS:          0
cpu0_L1I PREFETCH  REQUESTED:          0  ISSUED:          0  USEFUL:          0  USELESS:          0
cpu0_L1I AVERAGE MISS LATENCY: 231 cycles
cpu0_STLB TOTAL     ACCESS:      52999  HIT:          0  MISS:      52999
cpu0_STLB LOAD      ACCESS:      31191  HIT:          0  MISS:      31191
cpu0_STLB RFO       ACCESS:      21808  HIT:          0  MISS:      21808
cpu0_STLB PREFETCH  ACCESS:          0  HIT:          0  MISS:          0
cpu0_STLB WRITEBACK ACCESS:          0  HIT:          0  MISS:          0
cpu0_STLB TRANSLATION ACCESS:          0  HIT:          0  MISS:          0
cpu0_STLB PREFETCH  REQUESTED:          0  ISSUED:          0  USEFUL:          0  USELESS:          0
cpu0_STLB AVERAGE MISS LATENCY: 29.855 cycles
cpu0_L1D TOTAL     ACCESS:    9383699  HIT:    5993268  MISS:    3390431
cpu0_L1D LOAD      ACCESS:    3614970  HIT:     224600  MISS:    3390370
cpu0_L1D RFO       ACCESS:    5715730  HIT:    5715706  MISS:         24
cpu0_L1D PREFETCH  ACCESS:          0  HIT:          0  MISS:          0
cpu0_L1D WRITEBACK ACCESS:          0  HIT:          0  MISS:          0
cpu0_L1D TRANSLATION ACCESS:      52999  HIT:      52962  MISS:         37
cpu0_L1D PREFETCH  REQUESTED:          0  ISSUED:          0  USEFUL:          0  USELESS:          0
cpu0_L1D AVERAGE MISS LATENCY: 424.423 cycles
cpu0_L2C TOTAL     ACCESS:    4919960  HIT:    1529525  MISS:    3390435
cpu0_L2C LOAD      ACCESS:    3390374  HIT:          0  MISS:    3390374
cpu0_L2C RFO       ACCESS:         24  HIT:          0  MISS:         24
cpu0_L2C PREFETCH  ACCESS:          0  HIT:          0  MISS:          0
cpu0_L2C WRITEBACK ACCESS:    1529525  HIT:    1529525  MISS:          0
cpu0_L2C TRANSLATION ACCESS:         37  HIT:          0  MISS:         37
cpu0_L2C PREFETCH  REQUESTED:          0  ISSUED:          0  USEFUL:          0  USELESS:          0
cpu0_L2C AVERAGE MISS LATENCY: 413.421 cycles
LLC TOTAL     ACCESS:    4913649  HIT:     281914  MISS:    4631735
LLC LOAD      ACCESS:    3390374  HIT:     154978  MISS:    3235396
LLC RFO       ACCESS:         24  HIT:          0  MISS:         24
LLC PREFETCH  ACCESS:          0  HIT:          0  MISS:          0
LLC WRITEBACK ACCESS:    1523214  HIT:     126922  MISS:    1396292
LLC TRANSLATION ACCESS:         37  HIT:         14  MISS:         23
LLC PREFETCH  REQUESTED:          0  ISSUED:          0  USEFUL:          0  USELESS:          0
LLC AVERAGE MISS LATENCY: 287.157 cycles

DRAM Statistics
 CHANNEL 0
 RQ ROW_BUFFER_HIT:    1772189  ROW_BUFFER_MISS:    1463238
 DBUS AVG_CONGESTED_CYCLE:    3.89879
 WQ ROW_BUFFER_HIT:     250821  ROW_BUFFER_MISS:    1215486  FULL:     193371


CPU 0 Branch Prediction Accuracy: 98.7463% MPKI: 2.70066 Average ROB Occupancy at Mispredict: 44.7811
Branch type MPKI
BRANCH_DIRECT_JUMP: 1e-05
BRANCH_INDIRECT: 0
BRANCH_CONDITIONAL: 2.70053
BRANCH_DIRECT_CALL: 6e-05
BRANCH_INDIRECT_CALL: 0
BRANCH_RETURN: 6e-05

