
*** ChampSim Multicore Out-of-Order Simulator ***

Warmup Instructions: 10000000
Simulation Instructions: 100000000
Number of CPUs: 1
Off-chip DRAM Size: 4 GiB Channels: 1 Width: 64-bit Data Rate: 3200 MT/s

VirtualMemory physical capacity: 8588881920 num_ppages: 2096895
VirtualMemory page size: 4096 log2_page_size: 12

CPU 0 runs /datasets/cs240c-wi22-a00-public/data/Assignment2/mcf_250B.trace.xz
CPU 0 Bimodal branch predictor
Basic BTB sets: 1024 ways: 8 indirect buffer size: 4096 RAS size: 64
5th iteration
No hysteresis, common rrpv
Initialize Hawkeye state
Initialize SRRIP state
Heartbeat CPU 0 instructions: 10000004 cycles: 3834265 heartbeat IPC: 2.60806 cumulative IPC: 2.60806 (Simulation time: 0 hr 0 min 34 sec) 

Warmup complete CPU 0 instructions: 10000004 cycles: 3834265 (Simulation time: 0 hr 0 min 34 sec) 

Heartbeat CPU 0 instructions: 20000000 cycles: 146012320 heartbeat IPC: 0.0703343 cumulative IPC: 0.0703343 (Simulation time: 0 hr 3 min 18 sec) 
Heartbeat CPU 0 instructions: 30000000 cycles: 283644756 heartbeat IPC: 0.0726573 cumulative IPC: 0.0714769 (Simulation time: 0 hr 5 min 55 sec) 
Heartbeat CPU 0 instructions: 40000000 cycles: 428950850 heartbeat IPC: 0.0688202 cumulative IPC: 0.0705689 (Simulation time: 0 hr 8 min 43 sec) 
Heartbeat CPU 0 instructions: 50000000 cycles: 569526293 heartbeat IPC: 0.0711362 cumulative IPC: 0.0707098 (Simulation time: 0 hr 11 min 30 sec) 
Heartbeat CPU 0 instructions: 60000000 cycles: 709613930 heartbeat IPC: 0.0713839 cumulative IPC: 0.0708436 (Simulation time: 0 hr 14 min 16 sec) 
Heartbeat CPU 0 instructions: 70000000 cycles: 842651386 heartbeat IPC: 0.0751668 cumulative IPC: 0.0715293 (Simulation time: 0 hr 16 min 59 sec) 
Heartbeat CPU 0 instructions: 80000000 cycles: 985124474 heartbeat IPC: 0.0701887 cumulative IPC: 0.0713347 (Simulation time: 0 hr 19 min 50 sec) 
Heartbeat CPU 0 instructions: 90000000 cycles: 1107053831 heartbeat IPC: 0.0820147 cumulative IPC: 0.072515 (Simulation time: 0 hr 22 min 19 sec) 
Heartbeat CPU 0 instructions: 100000000 cycles: 1243060806 heartbeat IPC: 0.0735256 cumulative IPC: 0.0726259 (Simulation time: 0 hr 25 min 3 sec) 
Heartbeat CPU 0 instructions: 110000000 cycles: 1385679678 heartbeat IPC: 0.0701169 cumulative IPC: 0.072367 (Simulation time: 0 hr 27 min 56 sec) 
Finished CPU 0 instructions: 100000000 cycles: 1381845424 cumulative IPC: 0.072367 (Simulation time: 0 hr 27 min 56 sec) 

ChampSim completed all CPUs

Region of Interest Statistics

CPU 0 cumulative IPC: 0.072367 instructions: 100000000 cycles: 1381845424
cpu0_DTLB TOTAL     ACCESS:   20766196  HIT:    2975904  MISS:   17790292
cpu0_DTLB LOAD      ACCESS:   20270763  HIT:    2536365  MISS:   17734398
cpu0_DTLB RFO       ACCESS:     495433  HIT:     439539  MISS:      55894
cpu0_DTLB PREFETCH  ACCESS:          0  HIT:          0  MISS:          0
cpu0_DTLB WRITEBACK ACCESS:          0  HIT:          0  MISS:          0
cpu0_DTLB TRANSLATION ACCESS:          0  HIT:          0  MISS:          0
cpu0_DTLB PREFETCH  REQUESTED:          0  ISSUED:          0  USEFUL:          0  USELESS:          0
cpu0_DTLB AVERAGE MISS LATENCY: 10.5057 cycles
cpu0_ITLB TOTAL     ACCESS:   11316041  HIT:   11316041  MISS:          0
cpu0_ITLB LOAD      ACCESS:   11316041  HIT:   11316041  MISS:          0
cpu0_ITLB RFO       ACCESS:          0  HIT:          0  MISS:          0
cpu0_ITLB PREFETCH  ACCESS:          0  HIT:          0  MISS:          0
cpu0_ITLB WRITEBACK ACCESS:          0  HIT:          0  MISS:          0
cpu0_ITLB TRANSLATION ACCESS:          0  HIT:          0  MISS:          0
cpu0_ITLB PREFETCH  REQUESTED:          0  ISSUED:          0  USEFUL:          0  USELESS:          0
cpu0_ITLB AVERAGE MISS LATENCY: -nan cycles
cpu0_L1I TOTAL     ACCESS:          4  HIT:          4  MISS:          0
cpu0_L1I LOAD      ACCESS:          4  HIT:          4  MISS:          0
cpu0_L1I RFO       ACCESS:          0  HIT:          0  MISS:          0
cpu0_L1I PREFETCH  ACCESS:          0  HIT:          0  MISS:          0
cpu0_L1I WRITEBACK ACCESS:          0  HIT:          0  MISS:          0
cpu0_L1I TRANSLATION ACCESS:          0  HIT:          0  MISS:          0
cpu0_L1I PREFETCH  REQUESTED:          0  ISSUED:          0  USEFUL:          0  USELESS:          0
cpu0_L1I AVERAGE MISS LATENCY: -nan cycles
cpu0_STLB TOTAL     ACCESS:   17790292  HIT:   17413132  MISS:     377160
cpu0_STLB LOAD      ACCESS:   17734398  HIT:   17359375  MISS:     375023
cpu0_STLB RFO       ACCESS:      55894  HIT:      53757  MISS:       2137
cpu0_STLB PREFETCH  ACCESS:          0  HIT:          0  MISS:          0
cpu0_STLB WRITEBACK ACCESS:          0  HIT:          0  MISS:          0
cpu0_STLB TRANSLATION ACCESS:          0  HIT:          0  MISS:          0
cpu0_STLB PREFETCH  REQUESTED:          0  ISSUED:          0  USEFUL:          0  USELESS:          0
cpu0_STLB AVERAGE MISS LATENCY: 70.9966 cycles
cpu0_L1D TOTAL     ACCESS:   21384122  HIT:    3440182  MISS:   17943940
cpu0_L1D LOAD      ACCESS:   20343277  HIT:    2559273  MISS:   17784004
cpu0_L1D RFO       ACCESS:     664708  HIT:     633048  MISS:      31660
cpu0_L1D PREFETCH  ACCESS:          0  HIT:          0  MISS:          0
cpu0_L1D WRITEBACK ACCESS:          0  HIT:          0  MISS:          0
cpu0_L1D TRANSLATION ACCESS:     376137  HIT:     247861  MISS:     128276
cpu0_L1D PREFETCH  REQUESTED:          0  ISSUED:          0  USEFUL:          0  USELESS:          0
cpu0_L1D AVERAGE MISS LATENCY: 227.771 cycles
cpu0_L2C TOTAL     ACCESS:   18302933  HIT:    5792750  MISS:   12510183
cpu0_L2C LOAD      ACCESS:   17783977  HIT:    5386695  MISS:   12397282
cpu0_L2C RFO       ACCESS:      31659  HIT:       9149  MISS:      22510
cpu0_L2C PREFETCH  ACCESS:          0  HIT:          0  MISS:          0
cpu0_L2C WRITEBACK ACCESS:     359021  HIT:     359019  MISS:          2
cpu0_L2C TRANSLATION ACCESS:     128276  HIT:      37887  MISS:      90389
cpu0_L2C PREFETCH  REQUESTED:          0  ISSUED:          0  USEFUL:          0  USELESS:          0
cpu0_L2C AVERAGE MISS LATENCY: 310.913 cycles
LLC TOTAL     ACCESS:   12800498  HIT:    5941272  MISS:    6859226
LLC LOAD      ACCESS:   12397282  HIT:    5658898  MISS:    6738384
LLC RFO       ACCESS:      22510  HIT:      13746  MISS:       8764
LLC PREFETCH  ACCESS:          0  HIT:          0  MISS:          0
LLC WRITEBACK ACCESS:     290317  HIT:     184597  MISS:     105720
LLC TRANSLATION ACCESS:      90389  HIT:      84031  MISS:       6358
LLC PREFETCH  REQUESTED:          0  ISSUED:          0  USEFUL:          0  USELESS:          0
LLC AVERAGE MISS LATENCY: 528.757 cycles

DRAM Statistics
 CHANNEL 0
 RQ ROW_BUFFER_HIT:       3250  ROW_BUFFER_MISS:    6750191
 DBUS AVG_CONGESTED_CYCLE:    3.96042
 WQ ROW_BUFFER_HIT:      11905  ROW_BUFFER_MISS:     142158  FULL:          0


CPU 0 Branch Prediction Accuracy: 91.6559% MPKI: 25.5287 Average ROB Occupancy at Mispredict: 24.5025
Branch type MPKI
BRANCH_DIRECT_JUMP: 2e-05
BRANCH_INDIRECT: 0
BRANCH_CONDITIONAL: 25.5287
BRANCH_DIRECT_CALL: 0
BRANCH_INDIRECT_CALL: 0
BRANCH_RETURN: 0

