
*** ChampSim Multicore Out-of-Order Simulator ***

Warmup Instructions: 10000000
Simulation Instructions: 100000000
Number of CPUs: 1
Off-chip DRAM Size: 4 GiB Channels: 1 Width: 64-bit Data Rate: 3200 MT/s

VirtualMemory physical capacity: 8588881920 num_ppages: 2096895
VirtualMemory page size: 4096 log2_page_size: 12

CPU 0 runs /datasets/cs240c-wi22-a00-public/data/Assignment2/omnetpp_4B.trace.xz
CPU 0 Bimodal branch predictor
Basic BTB sets: 1024 ways: 8 indirect buffer size: 4096 RAS size: 64
5th iteration
No hysteresis, common rrpv
Initialize Hawkeye state
Initialize SRRIP state
Heartbeat CPU 0 instructions: 10000002 cycles: 2526488 heartbeat IPC: 3.95806 cumulative IPC: 3.95806 (Simulation time: 0 hr 0 min 18 sec) 

Warmup complete CPU 0 instructions: 10000002 cycles: 2526488 (Simulation time: 0 hr 0 min 18 sec) 

Heartbeat CPU 0 instructions: 20000000 cycles: 9155154 heartbeat IPC: 1.5086 cumulative IPC: 1.5086 (Simulation time: 0 hr 0 min 42 sec) 
Heartbeat CPU 0 instructions: 30000001 cycles: 15835248 heartbeat IPC: 1.49699 cumulative IPC: 1.50277 (Simulation time: 0 hr 1 min 10 sec) 
Heartbeat CPU 0 instructions: 40000002 cycles: 22603328 heartbeat IPC: 1.47752 cumulative IPC: 1.49426 (Simulation time: 0 hr 1 min 38 sec) 
Heartbeat CPU 0 instructions: 50000000 cycles: 29392762 heartbeat IPC: 1.47288 cumulative IPC: 1.48886 (Simulation time: 0 hr 2 min 4 sec) 
Heartbeat CPU 0 instructions: 60000000 cycles: 36036405 heartbeat IPC: 1.5052 cumulative IPC: 1.4921 (Simulation time: 0 hr 2 min 31 sec) 
Heartbeat CPU 0 instructions: 70000000 cycles: 42672695 heartbeat IPC: 1.50687 cumulative IPC: 1.49454 (Simulation time: 0 hr 2 min 56 sec) 
Heartbeat CPU 0 instructions: 80000000 cycles: 49285589 heartbeat IPC: 1.5122 cumulative IPC: 1.49703 (Simulation time: 0 hr 3 min 23 sec) 
Heartbeat CPU 0 instructions: 90000000 cycles: 56341531 heartbeat IPC: 1.41725 cumulative IPC: 1.48657 (Simulation time: 0 hr 3 min 52 sec) 
Heartbeat CPU 0 instructions: 100000001 cycles: 62678741 heartbeat IPC: 1.57798 cumulative IPC: 1.4962 (Simulation time: 0 hr 4 min 16 sec) 
Heartbeat CPU 0 instructions: 110000002 cycles: 69474925 heartbeat IPC: 1.47141 cumulative IPC: 1.49369 (Simulation time: 0 hr 4 min 43 sec) 
Finished CPU 0 instructions: 100000000 cycles: 66948437 cumulative IPC: 1.49369 (Simulation time: 0 hr 4 min 43 sec) 

ChampSim completed all CPUs

Region of Interest Statistics

CPU 0 cumulative IPC: 1.49369 instructions: 100000000 cycles: 66948437
cpu0_DTLB TOTAL     ACCESS:   11687421  HIT:   10255559  MISS:    1431862
cpu0_DTLB LOAD      ACCESS:    9100845  HIT:    7670546  MISS:    1430299
cpu0_DTLB RFO       ACCESS:    2586576  HIT:    2585013  MISS:       1563
cpu0_DTLB PREFETCH  ACCESS:          0  HIT:          0  MISS:          0
cpu0_DTLB WRITEBACK ACCESS:          0  HIT:          0  MISS:          0
cpu0_DTLB TRANSLATION ACCESS:          0  HIT:          0  MISS:          0
cpu0_DTLB PREFETCH  REQUESTED:          0  ISSUED:          0  USEFUL:          0  USELESS:          0
cpu0_DTLB AVERAGE MISS LATENCY: 17.5961 cycles
cpu0_ITLB TOTAL     ACCESS:    7987536  HIT:    7963369  MISS:      24167
cpu0_ITLB LOAD      ACCESS:    7987536  HIT:    7963369  MISS:      24167
cpu0_ITLB RFO       ACCESS:          0  HIT:          0  MISS:          0
cpu0_ITLB PREFETCH  ACCESS:          0  HIT:          0  MISS:          0
cpu0_ITLB WRITEBACK ACCESS:          0  HIT:          0  MISS:          0
cpu0_ITLB TRANSLATION ACCESS:          0  HIT:          0  MISS:          0
cpu0_ITLB PREFETCH  REQUESTED:          0  ISSUED:          0  USEFUL:          0  USELESS:          0
cpu0_ITLB AVERAGE MISS LATENCY: 10.8415 cycles
cpu0_L1I TOTAL     ACCESS:    1939580  HIT:    1876687  MISS:      62893
cpu0_L1I LOAD      ACCESS:    1939580  HIT:    1876687  MISS:      62893
cpu0_L1I RFO       ACCESS:          0  HIT:          0  MISS:          0
cpu0_L1I PREFETCH  ACCESS:          0  HIT:          0  MISS:          0
cpu0_L1I WRITEBACK ACCESS:          0  HIT:          0  MISS:          0
cpu0_L1I TRANSLATION ACCESS:          0  HIT:          0  MISS:          0
cpu0_L1I PREFETCH  REQUESTED:          0  ISSUED:          0  USEFUL:          0  USELESS:          0
cpu0_L1I AVERAGE MISS LATENCY: 45.1868 cycles
cpu0_STLB TOTAL     ACCESS:    1456029  HIT:      23480  MISS:    1432549
cpu0_STLB LOAD      ACCESS:    1454466  HIT:      22734  MISS:    1431732
cpu0_STLB RFO       ACCESS:       1563  HIT:        746  MISS:        817
cpu0_STLB PREFETCH  ACCESS:          0  HIT:          0  MISS:          0
cpu0_STLB WRITEBACK ACCESS:          0  HIT:          0  MISS:          0
cpu0_STLB TRANSLATION ACCESS:          0  HIT:          0  MISS:          0
cpu0_STLB PREFETCH  REQUESTED:          0  ISSUED:          0  USEFUL:          0  USELESS:          0
cpu0_STLB AVERAGE MISS LATENCY: 8.17602 cycles
cpu0_L1D TOTAL     ACCESS:   12546409  HIT:   10056511  MISS:    2489898
cpu0_L1D LOAD      ACCESS:    7277309  HIT:    4826131  MISS:    2451178
cpu0_L1D RFO       ACCESS:    4653074  HIT:    4615342  MISS:      37732
cpu0_L1D PREFETCH  ACCESS:          0  HIT:          0  MISS:          0
cpu0_L1D WRITEBACK ACCESS:          0  HIT:          0  MISS:          0
cpu0_L1D TRANSLATION ACCESS:     616026  HIT:     615038  MISS:        988
cpu0_L1D PREFETCH  REQUESTED:          0  ISSUED:          0  USEFUL:          0  USELESS:          0
cpu0_L1D AVERAGE MISS LATENCY: 65.4574 cycles
cpu0_L2C TOTAL     ACCESS:    2633738  HIT:     114322  MISS:    2519416
cpu0_L2C LOAD      ACCESS:    2514070  HIT:      32390  MISS:    2481680
cpu0_L2C RFO       ACCESS:      37732  HIT:        795  MISS:      36937
cpu0_L2C PREFETCH  ACCESS:          0  HIT:          0  MISS:          0
cpu0_L2C WRITEBACK ACCESS:      80948  HIT:      80948  MISS:          0
cpu0_L2C TRANSLATION ACCESS:        988  HIT:        189  MISS:        799
cpu0_L2C PREFETCH  REQUESTED:          0  ISSUED:          0  USEFUL:          0  USELESS:          0
cpu0_L2C AVERAGE MISS LATENCY: 54.0077 cycles
LLC TOTAL     ACCESS:    2598959  HIT:    2326037  MISS:     272922
LLC LOAD      ACCESS:    2481678  HIT:    2231047  MISS:     250631
LLC RFO       ACCESS:      36937  HIT:      20233  MISS:      16704
LLC PREFETCH  ACCESS:          0  HIT:          0  MISS:          0
LLC WRITEBACK ACCESS:      79545  HIT:      74062  MISS:       5483
LLC TRANSLATION ACCESS:        799  HIT:        695  MISS:        104
LLC PREFETCH  REQUESTED:          0  ISSUED:          0  USEFUL:          0  USELESS:          0
LLC AVERAGE MISS LATENCY: 304.616 cycles

DRAM Statistics
 CHANNEL 0
 RQ ROW_BUFFER_HIT:      23094  ROW_BUFFER_MISS:     243149
 DBUS AVG_CONGESTED_CYCLE:    3.94788
 WQ ROW_BUFFER_HIT:       5591  ROW_BUFFER_MISS:      42253  FULL:          0


CPU 0 Branch Prediction Accuracy: 97.4293% MPKI: 8.26178 Average ROB Occupancy at Mispredict: 56.9863
Branch type MPKI
BRANCH_DIRECT_JUMP: 0.00037
BRANCH_INDIRECT: 0.12485
BRANCH_CONDITIONAL: 8.10493
BRANCH_DIRECT_CALL: 0.00326
BRANCH_INDIRECT_CALL: 0.00558
BRANCH_RETURN: 0.02279

