
*** ChampSim Multicore Out-of-Order Simulator ***

Warmup Instructions: 10000000
Simulation Instructions: 100000000
Number of CPUs: 1
Off-chip DRAM Size: 4 GiB Channels: 1 Width: 64-bit Data Rate: 3200 MT/s

VirtualMemory physical capacity: 8588881920 num_ppages: 2096895
VirtualMemory page size: 4096 log2_page_size: 12

CPU 0 runs /datasets/cs240c-wi22-a00-public/data/Assignment2/wrf_1650B.trace.xz
CPU 0 Bimodal branch predictor
Basic BTB sets: 1024 ways: 8 indirect buffer size: 4096 RAS size: 64
5th iteration
No hysteresis, common rrpv
Initialize Hawkeye state
Initialize SRRIP state
Heartbeat CPU 0 instructions: 10000001 cycles: 2500100 heartbeat IPC: 3.99984 cumulative IPC: 3.99984 (Simulation time: 0 hr 0 min 18 sec) 

Warmup complete CPU 0 instructions: 10000001 cycles: 2500100 (Simulation time: 0 hr 0 min 18 sec) 

Heartbeat CPU 0 instructions: 20000004 cycles: 12137577 heartbeat IPC: 1.03762 cumulative IPC: 1.03762 (Simulation time: 0 hr 1 min 0 sec) 
Heartbeat CPU 0 instructions: 30000000 cycles: 21774170 heartbeat IPC: 1.03771 cumulative IPC: 1.03766 (Simulation time: 0 hr 1 min 41 sec) 
Heartbeat CPU 0 instructions: 40000002 cycles: 31416543 heartbeat IPC: 1.03709 cumulative IPC: 1.03747 (Simulation time: 0 hr 2 min 23 sec) 
Heartbeat CPU 0 instructions: 50000001 cycles: 47274856 heartbeat IPC: 0.630584 cumulative IPC: 0.893361 (Simulation time: 0 hr 3 min 28 sec) 
Heartbeat CPU 0 instructions: 60000000 cycles: 59564446 heartbeat IPC: 0.813697 cumulative IPC: 0.876204 (Simulation time: 0 hr 4 min 37 sec) 
Heartbeat CPU 0 instructions: 70000002 cycles: 75353003 heartbeat IPC: 0.63337 cumulative IPC: 0.823577 (Simulation time: 0 hr 5 min 38 sec) 
Heartbeat CPU 0 instructions: 80000004 cycles: 91104532 heartbeat IPC: 0.634859 cumulative IPC: 0.790028 (Simulation time: 0 hr 7 min 10 sec) 
Heartbeat CPU 0 instructions: 90000002 cycles: 107099991 heartbeat IPC: 0.625177 cumulative IPC: 0.764819 (Simulation time: 0 hr 9 min 10 sec) 
Heartbeat CPU 0 instructions: 100000004 cycles: 127311933 heartbeat IPC: 0.494757 cumulative IPC: 0.721085 (Simulation time: 0 hr 11 min 33 sec) 
Heartbeat CPU 0 instructions: 110000004 cycles: 146160572 heartbeat IPC: 0.530542 cumulative IPC: 0.696086 (Simulation time: 0 hr 13 min 11 sec) 
Finished CPU 0 instructions: 100000003 cycles: 143660472 cumulative IPC: 0.696086 (Simulation time: 0 hr 13 min 11 sec) 

ChampSim completed all CPUs

Region of Interest Statistics

CPU 0 cumulative IPC: 0.696086 instructions: 100000003 cycles: 143660472
cpu0_DTLB TOTAL     ACCESS:   16096301  HIT:   16065494  MISS:      30807
cpu0_DTLB LOAD      ACCESS:   14680220  HIT:   14656159  MISS:      24061
cpu0_DTLB RFO       ACCESS:    1416081  HIT:    1409335  MISS:       6746
cpu0_DTLB PREFETCH  ACCESS:          0  HIT:          0  MISS:          0
cpu0_DTLB WRITEBACK ACCESS:          0  HIT:          0  MISS:          0
cpu0_DTLB TRANSLATION ACCESS:          0  HIT:          0  MISS:          0
cpu0_DTLB PREFETCH  REQUESTED:          0  ISSUED:          0  USEFUL:          0  USELESS:          0
cpu0_DTLB AVERAGE MISS LATENCY: 144.008 cycles
cpu0_ITLB TOTAL     ACCESS:    6814695  HIT:    6814668  MISS:         27
cpu0_ITLB LOAD      ACCESS:    6814695  HIT:    6814668  MISS:         27
cpu0_ITLB RFO       ACCESS:          0  HIT:          0  MISS:          0
cpu0_ITLB PREFETCH  ACCESS:          0  HIT:          0  MISS:          0
cpu0_ITLB WRITEBACK ACCESS:          0  HIT:          0  MISS:          0
cpu0_ITLB TRANSLATION ACCESS:          0  HIT:          0  MISS:          0
cpu0_ITLB PREFETCH  REQUESTED:          0  ISSUED:          0  USEFUL:          0  USELESS:          0
cpu0_ITLB AVERAGE MISS LATENCY: 246.519 cycles
cpu0_L1I TOTAL     ACCESS:    1672486  HIT:    1671942  MISS:        544
cpu0_L1I LOAD      ACCESS:    1672486  HIT:    1671942  MISS:        544
cpu0_L1I RFO       ACCESS:          0  HIT:          0  MISS:          0
cpu0_L1I PREFETCH  ACCESS:          0  HIT:          0  MISS:          0
cpu0_L1I WRITEBACK ACCESS:          0  HIT:          0  MISS:          0
cpu0_L1I TRANSLATION ACCESS:          0  HIT:          0  MISS:          0
cpu0_L1I PREFETCH  REQUESTED:          0  ISSUED:          0  USEFUL:          0  USELESS:          0
cpu0_L1I AVERAGE MISS LATENCY: 346.732 cycles
cpu0_STLB TOTAL     ACCESS:      30834  HIT:      16604  MISS:      14230
cpu0_STLB LOAD      ACCESS:      24088  HIT:      13048  MISS:      11040
cpu0_STLB RFO       ACCESS:       6746  HIT:       3556  MISS:       3190
cpu0_STLB PREFETCH  ACCESS:          0  HIT:          0  MISS:          0
cpu0_STLB WRITEBACK ACCESS:          0  HIT:          0  MISS:          0
cpu0_STLB TRANSLATION ACCESS:          0  HIT:          0  MISS:          0
cpu0_STLB PREFETCH  REQUESTED:          0  ISSUED:          0  USEFUL:          0  USELESS:          0
cpu0_STLB AVERAGE MISS LATENCY: 292.734 cycles
cpu0_L1D TOTAL     ACCESS:   14602535  HIT:   13570364  MISS:    1032171
cpu0_L1D LOAD      ACCESS:   12313742  HIT:   11496263  MISS:     817479
cpu0_L1D RFO       ACCESS:    2275924  HIT:    2061806  MISS:     214118
cpu0_L1D PREFETCH  ACCESS:          0  HIT:          0  MISS:          0
cpu0_L1D WRITEBACK ACCESS:          0  HIT:          0  MISS:          0
cpu0_L1D TRANSLATION ACCESS:      12869  HIT:      12295  MISS:        574
cpu0_L1D PREFETCH  REQUESTED:          0  ISSUED:          0  USEFUL:          0  USELESS:          0
cpu0_L1D AVERAGE MISS LATENCY: 231.332 cycles
cpu0_L2C TOTAL     ACCESS:    1278959  HIT:     490120  MISS:     788839
cpu0_L2C LOAD      ACCESS:     818010  HIT:     229608  MISS:     588402
cpu0_L2C RFO       ACCESS:     214114  HIT:      13805  MISS:     200309
cpu0_L2C PREFETCH  ACCESS:          0  HIT:          0  MISS:          0
cpu0_L2C WRITEBACK ACCESS:     246261  HIT:     246177  MISS:         84
cpu0_L2C TRANSLATION ACCESS:        574  HIT:        530  MISS:         44
cpu0_L2C PREFETCH  REQUESTED:          0  ISSUED:          0  USEFUL:          0  USELESS:          0
cpu0_L2C AVERAGE MISS LATENCY: 288.522 cycles
LLC TOTAL     ACCESS:    1004388  HIT:     104844  MISS:     899544
LLC LOAD      ACCESS:     588401  HIT:      31765  MISS:     556636
LLC RFO       ACCESS:     200309  HIT:         67  MISS:     200242
LLC PREFETCH  ACCESS:          0  HIT:          0  MISS:          0
LLC WRITEBACK ACCESS:     215634  HIT:      72988  MISS:     142646
LLC TRANSLATION ACCESS:         44  HIT:         24  MISS:         20
LLC PREFETCH  REQUESTED:          0  ISSUED:          0  USEFUL:          0  USELESS:          0
LLC AVERAGE MISS LATENCY: 234.6 cycles

DRAM Statistics
 CHANNEL 0
 RQ ROW_BUFFER_HIT:      26865  ROW_BUFFER_MISS:     730013
 DBUS AVG_CONGESTED_CYCLE:    3.92685
 WQ ROW_BUFFER_HIT:      35191  ROW_BUFFER_MISS:     167232  FULL:          0


CPU 0 Branch Prediction Accuracy: 83.2596% MPKI: 18.9931 Average ROB Occupancy at Mispredict: 253.681
Branch type MPKI
BRANCH_DIRECT_JUMP: 0.0005
BRANCH_INDIRECT: 0
BRANCH_CONDITIONAL: 18.9921
BRANCH_DIRECT_CALL: 0.00023
BRANCH_INDIRECT_CALL: 0
BRANCH_RETURN: 0.00022

