
*** ChampSim Multicore Out-of-Order Simulator ***

Warmup Instructions: 10000000
Simulation Instructions: 100000000
Number of CPUs: 1
Off-chip DRAM Size: 4 GiB Channels: 1 Width: 64-bit Data Rate: 3200 MT/s

VirtualMemory physical capacity: 8588881920 num_ppages: 2096895
VirtualMemory page size: 4096 log2_page_size: 12

CPU 0 runs /datasets/cs240c-wi22-a00-public/data/Assignment2/zeusmp_600B.trace.xz
CPU 0 Bimodal branch predictor
Basic BTB sets: 1024 ways: 8 indirect buffer size: 4096 RAS size: 64
5th iteration
No hysteresis, common rrpv
Initialize Hawkeye state
Initialize SRRIP state
Heartbeat CPU 0 instructions: 10000001 cycles: 2573841 heartbeat IPC: 3.88524 cumulative IPC: 3.88524 (Simulation time: 0 hr 0 min 20 sec) 

Warmup complete CPU 0 instructions: 10000001 cycles: 2573841 (Simulation time: 0 hr 0 min 20 sec) 

Heartbeat CPU 0 instructions: 20000001 cycles: 7446892 heartbeat IPC: 2.0521 cumulative IPC: 2.0521 (Simulation time: 0 hr 0 min 51 sec) 
Heartbeat CPU 0 instructions: 30000004 cycles: 12853742 heartbeat IPC: 1.84951 cumulative IPC: 1.94554 (Simulation time: 0 hr 1 min 21 sec) 
Heartbeat CPU 0 instructions: 40000000 cycles: 18352242 heartbeat IPC: 1.81868 cumulative IPC: 1.90133 (Simulation time: 0 hr 1 min 51 sec) 
Heartbeat CPU 0 instructions: 50000001 cycles: 23840647 heartbeat IPC: 1.82202 cumulative IPC: 1.88087 (Simulation time: 0 hr 2 min 22 sec) 
Heartbeat CPU 0 instructions: 60000000 cycles: 29341097 heartbeat IPC: 1.81803 cumulative IPC: 1.86795 (Simulation time: 0 hr 3 min 16 sec) 
Heartbeat CPU 0 instructions: 70000003 cycles: 34842338 heartbeat IPC: 1.81777 cumulative IPC: 1.8594 (Simulation time: 0 hr 4 min 15 sec) 
Heartbeat CPU 0 instructions: 80000000 cycles: 40331760 heartbeat IPC: 1.82168 cumulative IPC: 1.85392 (Simulation time: 0 hr 5 min 13 sec) 
Heartbeat CPU 0 instructions: 90000001 cycles: 45836816 heartbeat IPC: 1.81651 cumulative IPC: 1.84916 (Simulation time: 0 hr 6 min 13 sec) 
Heartbeat CPU 0 instructions: 100000001 cycles: 51341417 heartbeat IPC: 1.81666 cumulative IPC: 1.84549 (Simulation time: 0 hr 7 min 8 sec) 
Heartbeat CPU 0 instructions: 110000003 cycles: 56846383 heartbeat IPC: 1.81654 cumulative IPC: 1.84255 (Simulation time: 0 hr 8 min 1 sec) 
Finished CPU 0 instructions: 100000002 cycles: 54272542 cumulative IPC: 1.84255 (Simulation time: 0 hr 8 min 1 sec) 

ChampSim completed all CPUs

Region of Interest Statistics

CPU 0 cumulative IPC: 1.84255 instructions: 100000002 cycles: 54272542
cpu0_DTLB TOTAL     ACCESS:   17106858  HIT:   16951488  MISS:     155370
cpu0_DTLB LOAD      ACCESS:   12988010  HIT:   12859682  MISS:     128328
cpu0_DTLB RFO       ACCESS:    4118848  HIT:    4091806  MISS:      27042
cpu0_DTLB PREFETCH  ACCESS:          0  HIT:          0  MISS:          0
cpu0_DTLB WRITEBACK ACCESS:          0  HIT:          0  MISS:          0
cpu0_DTLB TRANSLATION ACCESS:          0  HIT:          0  MISS:          0
cpu0_DTLB PREFETCH  REQUESTED:          0  ISSUED:          0  USEFUL:          0  USELESS:          0
cpu0_DTLB AVERAGE MISS LATENCY: 15.4554 cycles
cpu0_ITLB TOTAL     ACCESS:    2610353  HIT:    2610350  MISS:          3
cpu0_ITLB LOAD      ACCESS:    2610353  HIT:    2610350  MISS:          3
cpu0_ITLB RFO       ACCESS:          0  HIT:          0  MISS:          0
cpu0_ITLB PREFETCH  ACCESS:          0  HIT:          0  MISS:          0
cpu0_ITLB WRITEBACK ACCESS:          0  HIT:          0  MISS:          0
cpu0_ITLB TRANSLATION ACCESS:          0  HIT:          0  MISS:          0
cpu0_ITLB PREFETCH  REQUESTED:          0  ISSUED:          0  USEFUL:          0  USELESS:          0
cpu0_ITLB AVERAGE MISS LATENCY: 315.333 cycles
cpu0_L1I TOTAL     ACCESS:    5803770  HIT:    5803667  MISS:        103
cpu0_L1I LOAD      ACCESS:    5803770  HIT:    5803667  MISS:        103
cpu0_L1I RFO       ACCESS:          0  HIT:          0  MISS:          0
cpu0_L1I PREFETCH  ACCESS:          0  HIT:          0  MISS:          0
cpu0_L1I WRITEBACK ACCESS:          0  HIT:          0  MISS:          0
cpu0_L1I TRANSLATION ACCESS:          0  HIT:          0  MISS:          0
cpu0_L1I PREFETCH  REQUESTED:          0  ISSUED:          0  USEFUL:          0  USELESS:          0
cpu0_L1I AVERAGE MISS LATENCY: 254.165 cycles
cpu0_STLB TOTAL     ACCESS:     155373  HIT:     150382  MISS:       4991
cpu0_STLB LOAD      ACCESS:     128331  HIT:     123392  MISS:       4939
cpu0_STLB RFO       ACCESS:      27042  HIT:      26990  MISS:         52
cpu0_STLB PREFETCH  ACCESS:          0  HIT:          0  MISS:          0
cpu0_STLB WRITEBACK ACCESS:          0  HIT:          0  MISS:          0
cpu0_STLB TRANSLATION ACCESS:          0  HIT:          0  MISS:          0
cpu0_STLB PREFETCH  REQUESTED:          0  ISSUED:          0  USEFUL:          0  USELESS:          0
cpu0_STLB AVERAGE MISS LATENCY: 192.874 cycles
cpu0_L1D TOTAL     ACCESS:   20410436  HIT:   20089518  MISS:     320918
cpu0_L1D LOAD      ACCESS:   13173420  HIT:   12856276  MISS:     317144
cpu0_L1D RFO       ACCESS:    7232026  HIT:    7228579  MISS:       3447
cpu0_L1D PREFETCH  ACCESS:          0  HIT:          0  MISS:          0
cpu0_L1D WRITEBACK ACCESS:          0  HIT:          0  MISS:          0
cpu0_L1D TRANSLATION ACCESS:       4990  HIT:       4663  MISS:        327
cpu0_L1D PREFETCH  REQUESTED:          0  ISSUED:          0  USEFUL:          0  USELESS:          0
cpu0_L1D AVERAGE MISS LATENCY: 184.415 cycles
cpu0_L2C TOTAL     ACCESS:     383991  HIT:      66698  MISS:     317293
cpu0_L2C LOAD      ACCESS:     317247  HIT:       3425  MISS:     313822
cpu0_L2C RFO       ACCESS:       3447  HIT:          1  MISS:       3446
cpu0_L2C PREFETCH  ACCESS:          0  HIT:          0  MISS:          0
cpu0_L2C WRITEBACK ACCESS:      62970  HIT:      62970  MISS:          0
cpu0_L2C TRANSLATION ACCESS:        327  HIT:        302  MISS:         25
cpu0_L2C PREFETCH  REQUESTED:          0  ISSUED:          0  USEFUL:          0  USELESS:          0
cpu0_L2C AVERAGE MISS LATENCY: 175.463 cycles
LLC TOTAL     ACCESS:     380236  HIT:      11864  MISS:     368372
LLC LOAD      ACCESS:     313822  HIT:       2642  MISS:     311180
LLC RFO       ACCESS:       3446  HIT:          0  MISS:       3446
LLC PREFETCH  ACCESS:          0  HIT:          0  MISS:          0
LLC WRITEBACK ACCESS:      62943  HIT:       9202  MISS:      53741
LLC TRANSLATION ACCESS:         25  HIT:         20  MISS:          5
LLC PREFETCH  REQUESTED:          0  ISSUED:          0  USEFUL:          0  USELESS:          0
LLC AVERAGE MISS LATENCY: 133.045 cycles

DRAM Statistics
 CHANNEL 0
 RQ ROW_BUFFER_HIT:      61406  ROW_BUFFER_MISS:     253226
 DBUS AVG_CONGESTED_CYCLE:    3.73778
 WQ ROW_BUFFER_HIT:      21204  ROW_BUFFER_MISS:      38304  FULL:          0


CPU 0 Branch Prediction Accuracy: 96.8332% MPKI: 1.13776 Average ROB Occupancy at Mispredict: 151.952
Branch type MPKI
BRANCH_DIRECT_JUMP: 3e-05
BRANCH_INDIRECT: 0
BRANCH_CONDITIONAL: 1.13771
BRANCH_DIRECT_CALL: 1e-05
BRANCH_INDIRECT_CALL: 0
BRANCH_RETURN: 1e-05

